117

 C       -11.7711231811        7.1709668766       -3.4130618080
 C       -12.0866601615        8.4971484669       -2.7688143475
 O       -11.3755003762        9.4604721158       -2.7083794602
 C       -13.5088437075        8.7559015207       -2.0421271504
 C       -13.3130525613        8.2692451769       -0.6423338637
 O       -12.7640559940        7.1572579362       -0.3918781010
 C       -13.8087001544        9.1851045313        0.4150715202
 C       -13.0661402363        9.0310605048        1.7995843376
 C       -13.9600520368        8.3149690917        2.7972357993
 O       -15.0404930145        8.0081006289        2.4630392684
 C       -13.3112279663        8.1201221979        4.3625190067
 C       -12.5274291574        6.8520156707        4.4506037328
 O       -11.7159579442        6.5260096295        3.5516040047
 C       -12.7713998393        5.9471920793        5.7440323786
 C       -12.0536613280        4.5642585667        5.7790007203
 C       -12.3786910077        3.6390178224        4.4948446971
 O       -12.9355966373        4.0861430151        3.5145208441
 C       -11.7123253323        2.2474385504        4.4582594115
 C       -10.3402179934        2.3567025273        3.5935219963
 O        -9.3605612688        2.7497443115        4.1762560581
 C       -10.3958287783        2.1655878602        2.0305506416
 C        -9.2840563499        2.5655206407        1.1177489829
 C        -9.7278395398        3.8104804058        0.4321366303
 O       -10.7124388151        4.4156492738        0.7137056527
 C        -8.8166642550        4.4234642760       -0.6208913222
 C        -8.7166598067        3.4829263900       -2.0482126723
 O        -9.6743461145        2.9057934536       -2.5096167375
 C        -7.3676189897        3.5462102951       -2.8896626063
 C        -7.0439795992        2.1250568092       -3.4731360822
 C        -6.0480429286        2.2484289080       -4.6355621350
 O        -6.1009965300        3.2027650086       -5.4186373314
 C        -4.9471006683        1.1701658829       -4.8794629897
 C        -5.5055963515       -0.3317669423       -4.3672360644
 O        -6.2231241424       -0.5708924539       -3.4468143551
 C        -4.6245281514       -1.5467925982       -4.9251471566
 C        -4.9602182383       -2.8370290666       -3.9792209031
 C        -6.4429549329       -3.0139808873       -3.7147014335
 O        -7.2561873723       -2.7589558777       -4.5434078062
 C        -6.9690861062       -3.3002977821       -2.0708975066
 C        -6.4511579512       -4.8305711895       -1.7891763464
 O        -5.3292808263       -5.0024259631       -1.3394211886
 C        -7.2723415445       -6.0469740766       -2.3352211460
 C        -6.3798573994       -2.3841053745       -0.9235591902
 C        -8.4443607855       -3.1369809932       -1.8850719397
 C        -4.2414356627        1.2164662893       -6.1978114332
 C        -3.9659340197        1.3217688366       -3.7659676365
 C        -9.2971357102        5.8200206119       -1.2352869606
 C        -7.3688546130        4.5416646161       -0.0054704624
 C       -11.3195746164        1.4366252284        5.7943802190
 C       -12.7317689452        1.3655775984        3.5955265811
 C       -12.5194485388        9.4424689704        4.5583425831
 C       -14.5233909699        8.1387885954        5.3316781944
 C       -13.7087449735       10.2800746202       -2.1540267911
 C       -14.7924011905        8.0864236523       -2.5742764160
 H       -10.6608195981        6.9704235289       -3.4284048917
 H       -12.1904713827        7.1778388642       -4.4769423477
 H       -12.2275001456        6.5070188573       -2.6850859791
 H       -14.8073947447        8.8054764182        0.5210693913
 H       -13.9196998919       10.2435374234        0.0187167457
 H       -12.9273258066       10.0462517314        2.1832146503
 H       -12.1118931079        8.5851396893        1.6778614066
 H       -13.8346333013        5.6440559817        5.8840673739
 H       -12.3529359495        6.4034107559        6.6091967593
 H       -12.4216655502        3.9533349332        6.6808683289
 H       -10.9822088135        4.5561697255        6.0235883578
 H       -11.2125991232        2.8843375718        1.6717447909
 H       -10.5048892401        1.1157194081        1.6886120588
 H        -9.0759183052        1.8179616763        0.3988084364
 H        -8.3248923994        2.6826994809        1.6669815730
 H        -6.4815782341        3.9396673315       -2.2882749753
 H        -7.7649289959        4.2680316132       -3.7806411954
 H        -8.0649512212        1.6115605176       -3.7748692525
 H        -6.6021799990        1.4622446872       -2.6753438220
 H        -3.5534206999       -1.3281739179       -5.0738615946
 H        -4.9620320252       -1.7748057808       -5.9208818526
 H        -4.3267234599       -2.7677399094       -3.1406114073
 H        -4.6716404834       -3.7162057137       -4.6292600446
 H        -6.7217038083       -6.2116712317       -3.2874633145
 H        -8.2428880369       -5.9409769252       -2.5849994505
 H        -7.1736608650       -6.9826370055       -1.7609787334
 H        -6.7618551519       -2.7603843713        0.0378710066
 H        -6.6305885832       -1.3014308685       -0.9009299784
 H        -5.3619464393       -2.1263334825       -0.8787830814
 H        -8.6108205783       -2.1880070614       -1.4800463806
 H        -8.8426047587       -3.8812558287       -1.2203655415
 H        -9.1020437759       -3.1799156983       -2.8295562980
 H        -4.9016716159        0.9555092737       -6.9832960862
 H        -3.4881086193        0.4637690511       -6.3489307431
 H        -3.9671008238        2.3417365804       -6.3767122317
 H        -2.9661712002        1.0901386673       -3.9872709144
 H        -4.2265444789        0.6805742939       -2.8644223447
 H        -3.9643106957        2.3970079550       -3.4125967349
 H       -10.3233314180        5.7992005191       -1.4987854469
 H        -8.8080840356        6.2609947798       -2.1864852567
 H        -9.1843000709        6.6667795107       -0.5246610070
 H        -6.9903148225        3.5198496061       -0.0110511195
 H        -7.3916607275        4.8317909598        1.0129344918
 H        -6.7677466441        5.2915448188       -0.5228478024
 H       -12.1212377337        0.7416460398        6.1170143266
 H       -11.0906069580        1.9494610416        6.7251288412
 H       -10.4583864931        0.7388967346        5.6086176738
 H       -13.5758407317        0.9135317839        4.1442525338
 H       -12.1715251775        0.5155193964        3.0061852900
 H       -13.1096330433        1.9555809801        2.6964626402
 H       -11.9974030383        9.4553635751        5.4883236106
 H       -13.2591059058       10.2862837357        4.4939810687
 H       -11.7318838352        9.7162273997        3.7437113468
 H       -14.4778578214        7.5782676312        6.2298488891
 H       -15.5034130008        7.8321395982        4.8419656109
 H       -14.6355475104        9.2380855999        5.6733026016
 H       -13.5459103351       10.6167300777       -3.1974043099
 H       -13.0031191398       10.7909504138       -1.4379153116
 H       -14.7538309661       10.5850118041       -2.0576604139
 H       -15.6429932969        8.5064522054       -2.0888215618
 H       -14.7956388202        6.9993597550       -2.3706982582
 H       -14.6987969438        8.2941006210       -3.5962947391
 Na      -12.3352533021        5.9068986336        1.6576442870
