117

 C       -11.9541898283        6.9838305973       -3.4347677612
 C       -12.1465756028        8.4068159512       -2.8016732812
 O       -11.2742402321        9.1774637227       -2.8203147687
 C       -13.4884532976        8.7806220836       -2.1293066889
 C       -13.2136584310        8.2374493080       -0.5887600656
 O       -12.5120390352        7.2349602061       -0.4759206867
 C       -13.7156103108        9.1567694434        0.5072088904
 C       -12.9998524530        9.0698780513        1.8347997096
 C       -13.8792755413        8.3562156175        2.8013348236
 O       -15.0257566499        7.9868910742        2.5615441429
 C       -13.4399944502        8.1994448236        4.2570086567
 C       -12.5335482859        6.7715695760        4.4195830050
 O       -11.7038207577        6.4945224770        3.5561398779
 C       -12.5505419068        5.9534963194        5.6795190529
 C       -11.8431055682        4.5846846648        5.6579811871
 C       -12.2497693471        3.5578717814        4.4785203528
 O       -12.9842943074        4.0836857365        3.6371712742
 C       -11.6799678214        2.1681887213        4.2999128742
 C       -10.3831138735        2.3994763583        3.5715391517
 O        -9.3668295183        2.5617198456        4.2288489253
 C       -10.4738010416        2.3074127677        2.1037337789
 C        -9.2407682031        2.8896928734        1.3754348193
 C        -9.7274450765        4.0275287465        0.3502787602
 O       -10.8113625930        4.5284606463        0.5363751664
 C        -8.7394975183        4.4096515463       -0.7962444552
 C        -8.6485533978        3.5859117702       -2.1684198221
 O        -9.6472321519        3.0556772949       -2.4806325894
 C        -7.3549664675        3.5619640130       -2.8705485647
 C        -7.1811470619        2.1848232347       -3.5474067136
 C        -6.1472213713        2.1953831444       -4.6805742865
 O        -6.0363192646        3.1330421795       -5.4285348855
 C        -4.9891119364        1.0457158164       -4.6843784012
 C        -5.5631862805       -0.4362440446       -4.3459483973
 O        -6.3241525265       -0.3927342121       -3.3775029242
 C        -4.8134060645       -1.6611750151       -4.9067780594
 C        -5.0412599377       -2.7811427440       -3.8760286174
 C        -6.5017578751       -2.9638470082       -3.4922186917
 O        -7.4044504787       -2.9159777060       -4.2923392065
 C        -6.9660679275       -3.3792625861       -1.9979285508
 C        -6.3495442066       -4.8353325621       -1.8158110622
 O        -5.3579463811       -5.1280410255       -1.1626636927
 C        -7.3418374087       -5.9343190200       -2.2417303187
 C        -6.4307362406       -2.5133648182       -0.9355462071
 C        -8.4962994887       -3.2101303962       -2.1770220555
 C        -4.2983714078        1.2142744557       -6.0437018179
 C        -3.9071439066        1.1979474090       -3.4941816607
 C        -9.3612827421        5.7690399758       -1.2107829673
 C        -7.3935278346        4.6838282112       -0.1258998282
 C       -11.3872056926        1.5547132074        5.6468753338
 C       -12.6164916149        1.3132675620        3.4488530643
 C       -12.4072523024        9.3752753630        4.5259663953
 C       -14.6397283433        8.2502030601        5.2076601575
 C       -13.7140945513       10.3233865632       -2.1113631442
 C       -14.7790304373        8.0364169825       -2.6503139057
 H       -10.8115835344        7.0319329676       -3.6461272722
 H       -12.4699576541        6.9378896561       -4.4127685108
 H       -12.1324126059        6.1610648476       -2.6695046160
 H       -14.7954475770        8.9387024544        0.6593188485
 H       -13.6442594631       10.1856735102        0.0179714776
 H       -12.8335868408       10.1107652717        2.2396437138
 H       -12.0746036780        8.5815864038        1.6825602778
 H       -13.5551083028        5.6793733291        5.8346517660
 H       -12.1360417584        6.4049883565        6.5839378305
 H       -12.0686999926        4.1285558913        6.6271257624
 H       -10.7660811501        4.5922922464        5.7530137446
 H       -11.3417611451        2.7363795325        1.5992774974
 H       -10.2950425702        1.2029995177        1.9937128130
 H        -8.5202110394        2.1120807432        1.0461071593
 H        -8.7179249892        3.3438816770        2.1284490466
 H        -6.5246572589        3.6742691387       -2.0506966343
 H        -7.5119318327        4.5016394787       -3.5298282351
 H        -8.1573354162        1.9081494594       -4.0752329750
 H        -7.0755938699        1.4540208180       -2.7369328339
 H        -3.7909547184       -1.3723235455       -5.0983505080
 H        -5.2413247111       -1.8790344227       -5.9378950692
 H        -4.4140405550       -2.4569721679       -3.0841225239
 H        -4.7100880759       -3.6962396640       -4.3073331931
 H        -7.1669229232       -6.0935852552       -3.2689770069
 H        -8.4368671030       -5.6946771038       -2.2223646599
 H        -7.1495257758       -6.9281128309       -1.7308954375
 H        -6.8085074131       -2.7985371041        0.1067197497
 H        -6.6279915300       -1.4787250511       -1.0123047101
 H        -5.4078053752       -2.3397899637       -0.9201832468
 H        -8.6220292976       -2.1283775752       -2.3279766377
 H        -8.9933182992       -3.4572229326       -1.1901652217
 H        -9.0098850902       -3.7934366455       -2.9036754572
 H        -5.0178144481        1.2629719108       -6.8496820331
 H        -3.6246526572        0.4061461593       -6.4053572907
 H        -3.8972370443        2.2088003885       -5.9819295172
 H        -3.0358185975        0.4685032967       -3.7424634713
 H        -4.2891175906        0.8034674403       -2.5826986210
 H        -3.4586603109        2.1979714667       -3.3071091596
 H       -10.5072782026        5.6627547466       -1.4332055822
 H        -9.0194083629        6.2932051856       -2.1413232331
 H        -9.2640203130        6.5502712639       -0.4338183062
 H        -6.8511179003        3.7979542554        0.0911841923
 H        -7.6448670424        5.0540572325        0.8557050539
 H        -6.8633310902        5.4341067556       -0.5806284124
 H       -12.1877424599        0.9839454584        6.1637330477
 H       -11.2102405496        2.3488625446        6.3534721996
 H       -10.4801475223        0.9175011808        5.7054617948
 H       -13.5327936934        0.9841184744        3.9782975265
 H       -12.1053345086        0.4451166592        3.1092460343
 H       -12.9292890230        1.7828940149        2.4536607146
 H       -12.1508205948        9.3681813551        5.6463332273
 H       -12.7945494894       10.3499656294        4.3075118780
 H       -11.4852341003        9.3376943979        3.9115008429
 H       -14.4257213720        7.7965583499        6.2312682180
 H       -15.4058544634        7.6297691933        4.8591923408
 H       -14.9358341046        9.2585535932        5.3064186327
 H       -14.0906531353       10.6125201245       -3.1303641565
 H       -12.7269144609       10.7625157242       -1.9503383521
 H       -14.5921631123       10.7765471648       -1.5000597606
 H       -15.6058508826        8.3254597713       -2.0122991374
 H       -14.6544353617        6.9952763932       -2.4229608684
 H       -14.8791849382        8.2210567244       -3.7112326424
 Na      -12.2828087487        6.0436816680        1.5025256958
