117

 C       -12.2072624148        6.8374554094       -3.4998447960
 C       -12.1432041339        8.2811667745       -3.0041202675
 O       -11.0937217659        8.9848801631       -2.9429633067
 C       -13.4426434695        8.7359802544       -2.1561756156
 C       -13.0677322549        8.4093416170       -0.6412245290
 O       -12.4668803840        7.4033174294       -0.4641406542
 C       -13.6078819492        9.1745911900        0.5118075886
 C       -12.9705516216        9.0053743514        1.8523881965
 C       -13.8743168792        8.3126212763        2.8620750142
 O       -14.9929439899        7.9078306334        2.5674713564
 C       -13.3612439794        8.1134591487        4.3937271790
 C       -12.4545924390        6.7488933170        4.4420548899
 O       -11.6916169282        6.6039898467        3.5256964801
 C       -12.5071224040        5.9269346925        5.6716635758
 C       -11.7029530764        4.6384421715        5.5116944023
 C       -12.2772682616        3.7549282212        4.3887916768
 O       -13.1211026613        4.1387036746        3.5792755267
 C       -11.7497583054        2.1999550233        4.3413414976
 C       -10.2866275823        2.2894073745        3.5955491728
 O        -9.2618884603        2.4970564881        4.1766829110
 C       -10.3659012819        2.3014561759        2.0567272628
 C        -9.1744607873        3.3201517590        1.5113866175
 C        -9.6737016527        4.1272112813        0.2746871310
 O       -10.8914130219        4.5944223145        0.3243642890
 C        -8.7673952502        4.6420488161       -0.7411484890
 C        -8.7298767567        3.6815988382       -2.0354853058
 O        -9.6886222421        3.1292601574       -2.4990706409
 C        -7.3102285609        3.5437806700       -2.8937229187
 C        -7.2892948643        2.2292068130       -3.6297358685
 C        -6.0456608164        2.2159625967       -4.4774005927
 O        -5.9754662492        2.9550810131       -5.4200307033
 C        -5.0227305617        1.0703442767       -4.5172832359
 C        -5.5774116334       -0.3691413186       -4.2379659002
 O        -6.4643099232       -0.4653336140       -3.3924945774
 C        -5.1099516351       -1.6937431544       -4.7754456801
 C        -5.0881103217       -2.7795490665       -3.7255716076
 C        -6.5506616333       -2.9567144734       -3.4215740224
 O        -7.3555636854       -3.0541255362       -4.3648962632
 C        -7.0084786800       -3.3925474288       -1.9179193617
 C        -6.5664901191       -4.8818689595       -1.6718744989
 O        -5.4999101648       -5.0417069860       -1.1477715089
 C        -7.3923918175       -6.0610496556       -2.2040696525
 C        -6.3312913844       -2.5304173347       -0.8969760110
 C        -8.5740282879       -3.4211414462       -2.0896628093
 C        -4.2915576212        1.1012461937       -5.9493844627
 C        -3.9189170753        1.2459802071       -3.3664528106
 C        -9.3812929514        5.9573603118       -1.3178342974
 C        -7.3039959303        4.9047863989       -0.2081234543
 C       -11.5142644031        1.5005722795        5.6953808979
 C       -12.7033889440        1.2229302407        3.5049297753
 C       -12.2204394266        9.1829429737        4.7851535143
 C       -14.6137602091        8.2977372135        5.1744379190
 C       -13.7268242796       10.2387070171       -2.2642469253
 C       -14.7222557087        7.9455758589       -2.7031690751
 H       -11.2976457134        6.6185651999       -3.9880551306
 H       -12.9950129524        6.8028780918       -4.2399191651
 H       -12.3111293953        6.2071786667       -2.5601370757
 H       -14.7143016295        8.8532935145        0.6157162823
 H       -13.6091943871       10.1692605963        0.1953085612
 H       -12.7343176544       10.0151896316        2.2087652866
 H       -12.0182386598        8.3942160009        1.7004368864
 H       -13.5163900224        5.7360063677        5.9736403343
 H       -11.9702919143        6.4585698393        6.4927126446
 H       -11.3579747563        4.1200767596        6.3464397343
 H       -10.7295784217        4.8819118588        5.0852010441
 H       -11.1997293321        2.8368824621        1.7431414244
 H       -10.2673434215        1.3400277171        1.6199131757
 H        -8.1335122361        2.9080033847        1.4220710304
 H        -9.0655801936        4.0829427109        2.2736515740
 H        -6.4495846813        3.5046576309       -2.2320960527
 H        -7.3723782476        4.3662894862       -3.5027934499
 H        -7.9735278838        2.2512019517       -4.4049471111
 H        -7.5891811828        1.4597744880       -2.9356802652
 H        -4.1419385911       -1.5879602860       -5.2789567784
 H        -5.8300577321       -1.9742061711       -5.5912632228
 H        -4.4328347565       -2.2945707078       -2.9621484700
 H        -4.7138575649       -3.6495356968       -4.1622994841
 H        -7.6705723518       -5.9340685412       -3.2764095848
 H        -8.4349389233       -6.0431770522       -1.6700526010
 H        -6.9234172578       -7.0167662860       -2.0223036138
 H        -6.7969909206       -2.6787026674        0.0354602880
 H        -6.3571710573       -1.4906920850       -1.0644804239
 H        -5.2347251393       -2.5248495919       -0.7247298899
 H        -8.9987574149       -2.5645049009       -2.7152591450
 H        -9.0957998823       -3.3716484777       -1.0970810401
 H        -8.8514462821       -4.3769887147       -2.4423876290
 H        -4.9351334511        1.1480421863       -6.8681108829
 H        -3.6930072102        0.2033513499       -6.1110222499
 H        -3.7106961390        1.9325103135       -5.9493022370
 H        -3.3576293335        0.2782153316       -3.2566758299
 H        -4.3316968254        1.4396492856       -2.3782178112
 H        -3.1996739589        2.0187468453       -3.5806124452
 H       -10.3334498942        5.8497310354       -1.8922250402
 H        -8.7308301850        6.2972590308       -2.0910300116
 H        -9.5098147950        6.8533955243       -0.6578057222
 H        -6.8897093006        4.0006100521        0.1719866831
 H        -7.2923292141        5.5408788578        0.6754151169
 H        -6.6822517276        5.3600024432       -0.9680323600
 H       -12.3668025432        1.2645806193        6.3455321170
 H       -10.9204365629        2.2021063816        6.3500356899
 H       -10.8865498834        0.6254261884        5.5740793638
 H       -13.6416031107        1.0380576259        4.0204335927
 H       -12.2127593440        0.2949381031        3.3621124886
 H       -12.9541110082        1.5648794027        2.5559960108
 H       -12.2586898670        9.3274227693        5.8983314800
 H       -12.4566343669       10.2073900745        4.3761868660
 H       -11.2838162524        9.0475170554        4.3826191899
 H       -14.5638750689        8.3906071783        6.2662421474
 H       -15.1097034018        7.3279284826        5.1108200135
 H       -15.0912329459        9.1437876473        4.6836416373
 H       -14.2413974471       10.3459165632       -3.2537547256
 H       -12.7377570533       10.7256888576       -2.3952100847
 H       -14.4003120297       10.7799236719       -1.5938327417
 H       -15.5835585667        8.0839758085       -2.0405876089
 H       -14.5629448781        6.8916769503       -2.6560332694
 H       -14.8114218018        8.3227770546       -3.7446869834
 Na      -12.2212449663        6.0635160074        1.2909180702
