117

 C       -12.3902599235        6.6274366489       -3.9094841306
 C       -12.1441771113        8.0588785089       -3.1428562441
 O       -11.0963377490        8.5033989141       -3.3021591537
 C       -13.4223635661        8.7155156880       -2.2367281839
 C       -12.9692422514        8.5512748670       -0.7691856968
 O       -12.3071519045        7.5189257728       -0.5487174296
 C       -13.5357095306        9.3535828228        0.4415614525
 C       -12.8053802046        9.0793526438        1.8075428461
 C       -13.7182274336        8.4306306839        2.9295194398
 O       -14.6286455088        7.7160222481        2.5724751711
 C       -13.1837931572        8.1366528124        4.4924096586
 C       -12.4206291632        6.7741230144        4.3382099350
 O       -11.7239947000        6.5946904718        3.2997447782
 C       -12.3708195189        5.8232363221        5.5697032150
 C       -11.4133331667        4.6450246424        5.1565409591
 C       -12.1526971795        3.6312258529        4.2246355291
 O       -13.0778151692        3.9689121947        3.5103957907
 C       -11.8298405678        2.1918099790        4.2683038934
 C       -10.3351041156        2.3631936840        3.5557568362
 O        -9.3503150538        2.2777131152        4.2703887621
 C       -10.1300626889        2.7674563799        2.0594612055
 C        -9.2595086302        3.8802064666        1.5456809372
 C        -9.7378112986        4.5454905941        0.1835094213
 O       -10.9000752390        4.5482060511       -0.1041004646
 C        -8.6489316782        5.1334328007       -0.8353536057
 C        -8.6791686094        3.8438674792       -2.0468973125
 O        -9.7529856840        3.4051707403       -2.1808760919
 C        -7.3937756348        3.4886213824       -2.6780964291
 C        -7.3379746700        2.2896797560       -3.7032446117
 C        -6.0290901573        2.1719655536       -4.5245439189
 O        -5.8238376131        3.0077330709       -5.3800240954
 C        -5.1170785619        0.9868469026       -4.3765255633
 C        -5.7738426147       -0.3515821257       -4.0060782405
 O        -6.6852685227       -0.4409741078       -3.2368536403
 C        -5.1445001092       -1.6784102805       -4.5621685972
 C        -5.3521797850       -2.8882886719       -3.5319010487
 C        -6.8679037230       -3.2695168569       -3.3547359824
 O        -7.4411067927       -3.6131319361       -4.3553918676
 C        -7.3018775963       -3.6043733494       -1.9163871318
 C        -6.6314578281       -5.0777993972       -1.6295070096
 O        -5.6089182678       -5.1332644743       -0.9933294255
 C        -7.4304191194       -6.3114102804       -2.0229460241
 C        -6.6639930659       -2.5084558347       -1.0222459449
 C        -8.7623086453       -3.4056175783       -1.5851386215
 C        -4.1465204106        0.7707880070       -5.5479143863
 C        -4.1423338977        1.4604832932       -3.1574771117
 C        -9.1519624764        6.3817977367       -1.6057606129
 C        -7.3141676234        5.4400361160       -0.3117352980
 C       -11.5808684409        1.7986030224        5.6836655711
 C       -12.8664116610        1.3566913035        3.4822540968
 C       -12.1712734886        9.1877630646        5.0710859276
 C       -14.4645582688        8.0026096176        5.4567684130
 C       -13.4678419830       10.1413922057       -2.8609509680
 C       -14.7779595754        7.9058698650       -2.3426515802
 H       -11.4460467708        6.4450999612       -4.4421121811
 H       -13.1297631499        6.6120659885       -4.6404857898
 H       -12.5975237871        5.9954838689       -3.1041226304
 H       -14.5184385103        8.9962448049        0.4951035659
 H       -13.5505772967       10.4685028045        0.1694996360
 H       -12.4013773121       10.0616843087        2.0997146518
 H       -12.0274185119        8.3551044288        1.7364229041
 H       -13.3311656625        5.3526834191        5.9435861644
 H       -11.8856186539        6.3385633474        6.4155987296
 H       -11.0594000030        3.9987253628        6.0196971302
 H       -10.3988677886        4.9424331779        4.8422739179
 H       -11.0888989844        3.1072463651        1.5675311656
 H        -9.7381280074        1.8387538751        1.5577010000
 H        -8.1745334193        3.7776972651        1.6929074092
 H        -9.4712220749        4.8402233582        2.1459566254
 H        -6.6683983538        3.3728753947       -1.8245489085
 H        -7.1800473456        4.3845527053       -3.3239834827
 H        -8.1908777913        2.4899904392       -4.4290443563
 H        -7.5093718301        1.3658719651       -3.1818338002
 H        -4.1162851370       -1.6580775332       -4.8959129170
 H        -5.6836017012       -2.0869252510       -5.3907857984
 H        -4.7747958840       -2.6549636654       -2.6648655641
 H        -4.9648020633       -3.7742601740       -4.1568362728
 H        -8.4429085744       -6.2203494519       -2.2065830234
 H        -7.2855394542       -7.1231906363       -1.3542446186
 H        -6.9382752321       -6.5511300575       -3.0027631452
 H        -7.1049174645       -2.2849833665        0.0102703792
 H        -6.3498924205       -1.5253955683       -1.4096678176
 H        -5.6911736169       -2.7923329099       -0.6972594033
 H        -8.8728437746       -2.3520102286       -1.6194634974
 H        -8.9134466929       -3.5964049949       -0.5161751323
 H        -9.5204111873       -3.9716573213       -2.1520388681
 H        -4.4668780706        0.0401430336       -6.2555758923
 H        -3.2523559468        0.3336885248       -5.0080249383
 H        -3.7584075175        1.6888207247       -6.0888383354
 H        -3.9213228282        0.6742996537       -2.4295762954
 H        -4.5641799117        2.2595283086       -2.5917236588
 H        -3.2061964634        1.8688793387       -3.5406665180
 H        -9.9724661880        6.2052028439       -2.3252938771
 H        -8.4439608591        6.8794419944       -2.2383738074
 H        -9.6032587783        7.1160266984       -1.0413427317
 H        -6.7833334359        4.5787754210        0.2349622958
 H        -7.2014283711        6.2750016066        0.4289430757
 H        -6.7536400741        5.6700190541       -1.2499532367
 H       -11.8889527338        2.5511102956        6.4471140857
 H       -10.5366070188        1.6575783849        5.9530104550
 H       -12.0380566088        0.7997785133        5.9178893132
 H       -13.8325475322        1.3995499574        3.9872645613
 H       -12.4909471979        0.3250501737        3.4771764953
 H       -13.1198343571        1.8181331903        2.4417142385
 H       -11.9096606368        8.9899439587        6.1246924933
 H       -12.6023188335       10.1584910116        5.2096187092
 H       -11.3625981418        9.4876075690        4.3307764336
 H       -14.2392409030        8.4466063875        6.4993671830
 H       -14.6560504995        6.9737569891        5.8216339920
 H       -15.2295980381        8.5914909804        4.9525959318
 H       -13.4300844265       10.1201319650       -3.9492495068
 H       -12.6719636973       10.8073944989       -2.5696014456
 H       -14.3917981601       10.6557191415       -2.4852649885
 H       -15.6482336735        8.4193002261       -1.9184311946
 H       -14.6555501069        6.9816061066       -1.7397630341
 H       -14.8994407082        7.7292884856       -3.3924587682
 Na      -12.1248171865        5.8851854735        1.2216898168
