117

 C       -12.5530135837        6.5396647547       -4.0465098756
 C       -12.2680480620        7.8427853264       -3.2358241415
 O       -11.1962333631        8.4484462244       -3.3056800717
 C       -13.3273565582        8.5604649637       -2.3584419046
 C       -12.8330743485        8.4829007154       -0.7464022147
 O       -12.1707376150        7.4865930946       -0.4770831755
 C       -13.4805373208        9.3790699964        0.4705162875
 C       -12.7562254884        9.2570171153        1.8906359523
 C       -13.5658354327        8.3575532008        2.8898914826
 O       -14.5582688572        7.7212993290        2.5396582524
 C       -13.0763749938        8.1818354880        4.4087937325
 C       -12.2853262836        6.8384360709        4.3112845682
 O       -11.7760909938        6.5615751563        3.2229253916
 C       -12.1796164576        5.8880778301        5.3894737270
 C       -11.4238113206        4.6651018869        5.0602754964
 C       -12.2199322557        3.6596084876        4.1561936998
 O       -13.0248403198        4.2256073043        3.3837045125
 C       -11.6984220398        2.2010261796        4.1180935404
 C       -10.2270594003        2.3203017879        3.5246750399
 O        -9.2657242658        2.2271137428        4.2474618676
 C       -10.2994927640        2.9427267401        1.9676903970
 C        -9.3589078406        4.1801695241        1.5932880795
 C        -9.6881373608        4.7514026055        0.1667966239
 O       -10.7813112047        4.6523739292       -0.2811131640
 C        -8.6083514862        5.1371998904       -0.9315910221
 C        -8.6725447289        3.9646495378       -1.9517917900
 O        -9.7099868714        3.4197320382       -2.1945287501
 C        -7.2468808600        3.5997650744       -2.6022797586
 C        -7.4875265298        2.4567949195       -3.7041105239
 C        -6.1418948346        2.2480162542       -4.5811345230
 O        -5.7841278532        3.0781564555       -5.3412235140
 C        -5.0744934519        0.8969704061       -4.2919569374
 C        -5.7261500804       -0.5029952549       -3.8087590754
 O        -6.7968871371       -0.3762471532       -3.1595496916
 C        -5.1892566906       -1.7382124800       -4.2955997697
 C        -5.5375367659       -3.0443081030       -3.5882677784
 C        -6.9375026049       -3.5122807186       -3.3744086933
 O        -7.7471017794       -3.9413493939       -4.1822799814
 C        -7.3114056168       -3.6036744134       -1.7422777828
 C        -6.7167211975       -5.0050966901       -1.4630984826
 O        -5.6506877695       -5.1818159067       -0.9504037628
 C        -7.4803602721       -6.3175401844       -1.9783829817
 C        -6.6062865374       -2.5476733852       -0.8541285067
 C        -8.8930515434       -3.6075774327       -1.6831086978
 C        -4.0704835428        0.7882367985       -5.5025672422
 C        -4.4080849507        1.5166742394       -2.9054231564
 C        -9.2155149417        6.4053154902       -1.6565923452
 C        -7.2374252070        5.5614167429       -0.2496962211
 C       -11.5709390912        1.6804875724        5.6869150773
 C       -12.7185578147        1.3963305800        3.3442485443
 C       -12.2740057705        9.2972867688        4.9603112618
 C       -14.3008146009        7.8863897279        5.3462934332
 C       -13.3252605606        9.9931003851       -2.9270945984
 C       -14.7183577242        7.9827020515       -2.2707078430
 H       -11.7115160461        6.2427810016       -4.6765039428
 H       -13.3327731774        6.8465191591       -4.7577033860
 H       -13.0278108919        5.8281256519       -3.2389637047
 H       -14.5219040368        9.0701054785        0.5073473792
 H       -13.3820552758       10.4168906495        0.0955922981
 H       -12.6408251249       10.3070301687        2.2264156639
 H       -11.8170151707        8.7993276532        1.8523525757
 H       -13.1623855147        5.4761037526        5.4222899633
 H       -11.9354561999        6.2512376749        6.4084698372
 H       -10.8852242955        4.2124478716        5.8948572028
 H       -10.5167627184        4.8575796021        4.4147506535
 H       -11.3346064080        3.2379318157        1.6191925969
 H        -9.8652396518        2.0873730493        1.2974857052
 H        -8.2845118028        3.9148477487        1.8783314693
 H        -9.4937920842        5.0269406203        2.1835283254
 H        -6.6722027097        3.1964287223       -1.6015448110
 H        -6.7007889820        4.4245601956       -3.2334193758
 H        -8.4197976990        2.7529156307       -4.2962871544
 H        -7.6093451028        1.4551223886       -3.1454462895
 H        -4.1332430646       -1.6314824064       -4.2310614982
 H        -5.4062899109       -1.9410340301       -5.3688892958
 H        -5.1323459609       -2.8092911492       -2.6063125309
 H        -4.9446677630       -3.7657571720       -4.0821013207
 H        -8.4336500417       -6.5290382824       -1.5664970113
 H        -6.9374109520       -7.3094078412       -1.8332661525
 H        -7.6063312465       -6.1150888853       -2.9974717296
 H        -6.8819771142       -2.3679690171        0.2231842901
 H        -6.5411034316       -1.5527500040       -1.2578468440
 H        -5.5182956690       -2.6944059173       -0.6724514153
 H        -9.2650470200       -2.5869515808       -1.5260387560
 H        -9.4178106116       -4.2321570208       -0.9351977126
 H        -9.1216423328       -3.9377068391       -2.6185111409
 H        -4.3500138410       -0.1079245053       -6.1503101364
 H        -2.9610640498        0.7071188844       -5.2193051674
 H        -4.1290592442        1.6380281911       -6.0831437621
 H        -4.1546196358        0.5992682925       -2.2114180584
 H        -5.0647741722        2.0965455973       -2.3348257966
 H        -3.4770406663        2.0955807235       -2.9665399955
 H       -10.1973295601        6.4194759762       -2.2431562518
 H        -8.5755503352        6.8462979791       -2.3960765366
 H        -9.4744513587        7.2075957394       -0.9477847272
 H        -6.6468657412        4.8813977752        0.3754371281
 H        -7.5382488129        6.3699991954        0.4741155995
 H        -6.5739389748        5.9924192324       -0.9729317148
 H       -11.9338890371        2.4575539797        6.3876213618
 H       -10.5730207518        1.4583630131        6.1181397696
 H       -12.0979411712        0.7237246319        5.7868538377
 H       -13.7523828291        1.5417515107        3.9036017789
 H       -12.4351300872        0.3380487223        3.4510815875
 H       -12.9930033685        1.7736495430        2.3097510392
 H       -11.5794137790        8.9200895797        5.8217289520
 H       -12.6893824836       10.1176141485        5.5248917503
 H       -11.7675881750        9.7474168094        4.1545186436
 H       -13.9604939836        8.0957118888        6.4235968138
 H       -14.4505742177        6.8657074753        5.4646493849
 H       -15.0764302474        8.4891877302        5.0294662852
 H       -13.2098941772       10.0583487817       -4.0283946140
 H       -12.5498876876       10.6892789744       -2.5949206517
 H       -14.2739578598       10.4769923151       -2.5024199096
 H       -15.3121330431        8.8328239416       -1.8972978518
 H       -14.7423154607        7.2771709917       -1.4775398523
 H       -15.1817022247        7.6456601209       -3.2024484897
 Na      -12.1701520866        5.7671028746        1.2526399885
