117

 C       -13.4038737527        6.3818377284       -4.0255147270
 C       -12.5286797794        7.3048020225       -3.0280352047
 O       -11.3046665367        7.3276101942       -2.9560386086
 C       -13.3315027199        8.3264488651       -2.2202372708
 C       -12.7675034188        8.4526038047       -0.7616223193
 O       -12.3317277114        7.4933513982       -0.2234137730
 C       -12.9155327725        9.8465347508        0.1184249709
 C       -12.5379659600        9.5145067853        1.5685472575
 C       -13.2334090360        8.4218946116        2.3139492298
 O       -13.9814024844        7.5984046652        1.8616186943
 C       -12.9352985693        8.2049330133        3.8722625753
 C       -11.8476908914        7.0791960839        3.7798940263
 O       -11.0264337950        6.9100420214        2.9230046885
 C       -11.6688212621        6.1991644363        5.1796802988
 C       -11.1960164483        4.7774840552        5.1213497968
 C       -11.8742059407        3.9751409669        3.8631629665
 O       -12.7092837041        4.4993860704        3.1038712719
 C       -11.3569387620        2.4573725612        3.5906160946
 C        -9.8915927729        2.4775053214        2.6990670732
 O        -8.9773945200        2.2581648225        3.4354928581
 C        -9.6784746698        2.8778963759        1.2349241805
 C        -9.4508321724        4.4933583168        1.4591755619
 C        -9.7267042521        5.1157963033        0.1446048272
 O       -10.8584703240        5.4809271283       -0.1962939269
 C        -8.5320358550        5.4654392115       -0.8004806640
 C        -8.5681736717        4.1883449757       -1.8765648606
 O        -9.6875211095        3.6599474915       -1.9344316973
 C        -7.2608838532        3.6974183960       -2.5521711111
 C        -7.3942849301        2.3719737980       -3.2620226640
 C        -6.1412783204        1.8771719899       -4.0789722478
 O        -5.8367756188        2.5024623091       -5.0854157282
 C        -5.1713643346        0.7028305857       -3.5245790518
 C        -6.2148405280       -0.5504501521       -3.4187694345
 O        -7.2111753259       -0.3394990825       -2.8281695591
 C        -6.1728023668       -1.8191840879       -4.2514725241
 C        -5.8527576411       -3.0202432132       -3.2468483186
 C        -7.2021084884       -3.6322486181       -3.0005127582
 O        -8.0051689967       -3.8757600337       -3.8767373632
 C        -7.6464994472       -3.9626530439       -1.4752048784
 C        -7.0482259925       -5.3104779274       -0.9445321839
 O        -5.8901191026       -5.3559672760       -0.5529555636
 C        -7.7424412736       -6.6050526174       -1.4083517610
 C        -7.2178815400       -2.9380917512       -0.4949238558
 C        -9.2716761817       -4.0886688641       -1.5769937837
 C        -3.8887825653        0.6176057300       -4.4769622195
 C        -4.7405836847        1.1727256433       -2.1357804614
 C        -8.5996357890        6.8031307276       -1.6364325247
 C        -7.1696488539        5.5797771222       -0.2062477860
 C       -11.0444799485        1.6823452247        4.8866965326
 C       -12.5173734756        1.7701309332        2.7037105972
 C       -12.1373009686        9.4261328601        4.5535254995
 C       -14.2575532197        7.8088135067        4.6978637022
 C       -13.1816825658        9.6340880176       -3.0404140261
 C       -14.8606742144        8.1328738454       -1.9390354123
 H       -12.8471321353        6.1186716743       -5.0211658473
 H       -14.3170981852        7.0731652831       -4.1487029478
 H       -13.8673951130        5.6070108353       -3.4556383440
 H       -13.9775984021       10.1977709127        0.0184354615
 H       -12.1875594528       10.4555922813       -0.2547617458
 H       -12.6361356183       10.3515751353        2.1890117900
 H       -11.4801097425        9.1748738097        1.5644557274
 H       -12.6046168715        6.1219032308        5.7333304549
 H       -11.0719353393        6.8558714917        5.8012181096
 H       -11.3762656568        4.2393606671        6.0637598886
 H       -10.0692598328        4.6183611450        5.0025172715
 H       -10.5612848930        2.6143799029        0.5166620442
 H        -8.7988584952        2.3363583625        0.7830834839
 H        -8.5009433019        4.6265802330        1.8631818791
 H       -10.1094456105        4.8302335231        2.2605965743
 H        -6.4041672115        3.6773586996       -1.7739493108
 H        -6.9228777152        4.6206414773       -3.2468528338
 H        -8.0581690410        2.5278744262       -4.2043708418
 H        -7.8865685240        1.7025644973       -2.4625332615
 H        -5.4688988483       -1.7741795925       -5.0774765018
 H        -7.2133370107       -1.9332813180       -4.5808192961
 H        -5.3364463598       -2.6396650721       -2.3831886913
 H        -5.1486507775       -3.6792242799       -3.6435652102
 H        -7.0083291663       -7.3651589521       -1.7036258626
 H        -8.4185059627       -6.4426182156       -2.1453284367
 H        -8.3898646187       -6.9737844919       -0.5527278717
 H        -8.0247894702       -2.8257456481        0.2056079239
 H        -7.1702715010       -1.8479144911       -0.6496191740
 H        -6.4245672393       -3.1182547731        0.2149326556
 H        -9.7682376898       -3.3379634477       -2.1739781589
 H        -9.5497335700       -4.0164221876       -0.5784846147
 H        -9.5901813374       -5.0859658306       -1.9885086762
 H        -4.1110736868        0.6761988845       -5.5381985618
 H        -3.2053264330       -0.1702686689       -4.2321814570
 H        -3.2457549636        1.5419801792       -4.1641771942
 H        -3.9522965654        0.5877325734       -1.8248698301
 H        -5.6079812666        0.9985838750       -1.4057227784
 H        -4.4087213894        2.1868969998       -1.8905606326
 H        -9.3836539835        6.9031528050       -2.3347435142
 H        -7.6939285279        6.8779250640       -2.3338247473
 H        -8.6592780955        7.8091026024       -1.1554294080
 H        -6.8414092750        4.6031629529        0.2229144116
 H        -7.1126192940        6.3367020998        0.5709487121
 H        -6.2720213902        5.7916701423       -0.8501848902
 H       -12.0135014418        1.3972648475        5.3445835627
 H       -10.4371490553        2.3108785818        5.6207142790
 H       -10.4758455606        0.7563748552        4.7508491600
 H       -13.1531052240        1.0535766354        3.2557577133
 H       -11.9797035266        1.2459758043        1.7951779288
 H       -13.0474340896        2.6865703266        2.3728590682
 H       -12.0565778960        9.2992981514        5.5858609270
 H       -12.6992327145       10.3754583527        4.4653626435
 H       -11.0459315235        9.6434097232        4.4208894270
 H       -13.9445879485        7.3265281991        5.5750743967
 H       -14.8750163444        7.3159768002        3.9481509765
 H       -14.7895303701        8.7182097156        4.9758201889
 H       -12.5687086430        9.3648024094       -3.9698352174
 H       -12.5612231497       10.5190997329       -2.6675079703
 H       -14.0253995017       10.1138795561       -3.5017711206
 H       -15.2628031287        9.0182449359       -1.4900719011
 H       -14.9905304639        7.2255426736       -1.3540065864
 H       -15.4503478954        7.9654139669       -2.8180971846
 Na      -12.8643139960        5.9165894900        1.1958886637
