117

 C       -13.8383337668        6.2290022038       -3.8470760391
 C       -13.0002500682        7.1565338769       -3.0565499497
 O       -11.8289543231        6.8789961700       -2.7039206102
 C       -13.6737759555        8.5626574822       -2.4549990263
 C       -12.9198254885        8.7250332953       -0.9949121001
 O       -12.5906607946        7.7512384343       -0.4013299900
 C       -12.7383742235       10.0287120787       -0.1424353836
 C       -12.1356448144        9.8089772952        1.3143826658
 C       -12.9677048901        8.7797822890        2.1197498726
 O       -13.8637189078        8.2497315019        1.5363235751
 C       -12.7081287174        8.2206524071        3.7882142245
 C       -11.6841446265        7.0087869653        3.7991025264
 O       -11.0309404580        6.7905518513        2.8323438015
 C       -11.4995698178        6.1278097604        5.0926506726
 C       -10.7662159049        4.8569373001        4.6481193311
 C       -11.5515440132        3.9609605417        3.6730914301
 O       -12.5205457539        4.4432997769        3.0879897636
 C       -11.2294095348        2.5489830446        3.3773203593
 C        -9.7311522395        2.5983114437        2.7243863635
 O        -8.6954358616        2.1649030176        3.1670320460
 C        -9.6619668574        3.1431570347        1.3327013824
 C        -9.3930299308        4.6506280457        1.4428270985
 C        -9.5102107851        5.4268789531        0.0471301021
 O       -10.5208138415        6.0178609187       -0.2683057765
 C        -8.2125453519        5.4563702404       -0.8939566662
 C        -8.4148332298        4.2642000357       -1.8860681861
 O        -9.4693924797        3.5396160928       -1.8870420711
 C        -7.2802342076        3.9206124320       -2.8363217776
 C        -7.4283488103        2.3859358663       -3.1031066186
 C        -6.0724113604        1.8245941673       -3.6747365652
 O        -5.8665190243        2.1480583414       -4.8298530056
 C        -5.4135928149        0.5747018296       -3.1232734331
 C        -6.5058528561       -0.6826027602       -3.0560491332
 O        -7.3410591326       -0.8237577829       -2.2261779146
 C        -6.1013044254       -1.9303923858       -3.9920941388
 C        -6.1502164290       -3.1919048490       -3.0756830435
 C        -7.5619767319       -3.6527051226       -2.9250104094
 O        -8.3810044555       -3.6345643041       -3.8019622368
 C        -7.8891267885       -4.0975161687       -1.3079054263
 C        -7.0932506534       -5.3022104138       -0.9967913592
 O        -6.0574586066       -5.2485442272       -0.3522405309
 C        -7.7650906073       -6.6362997582       -1.2010025974
 C        -7.5294115962       -3.0498362199       -0.2589603241
 C        -9.5156142109       -4.4492038404       -1.3064578194
 C        -4.1281008593        0.3137577795       -3.8779463198
 C        -5.2170577793        0.8101121455       -1.5637898400
 C        -8.2249230860        6.6839119182       -1.6708467939
 C        -6.8715412034        5.2991230835       -0.0618587391
 C       -11.1231782408        1.7179858388        4.7089810749
 C       -12.2067228655        1.9322630829        2.3113161981
 C       -12.2414176939        9.3468962831        4.5862355887
 C       -14.1997015263        7.6392449139        4.2517633318
 C       -13.5048907103        9.7754500602       -3.4111478392
 C       -15.1435851526        8.3512169908       -2.2099244438
 H       -13.0166952858        5.6924889941       -4.2676816981
 H       -14.4725694737        6.7178460506       -4.5369591093
 H       -14.3960465136        5.6846394857       -3.2318855604
 H       -13.8231704731       10.3298256362       -0.0003479032
 H       -12.1428683738       10.7869791271       -0.6084540048
 H       -12.1693826550       10.8420622874        1.7919464737
 H       -11.1351821713        9.4049389595        1.3622953125
 H       -12.4387256765        6.1387139282        5.6393340179
 H       -10.7755580205        6.6813547398        5.7929408803
 H       -10.4545154654        4.2390118654        5.5003460995
 H        -9.8339078315        5.2316466346        4.0679165568
 H       -10.5332969216        2.9900003052        0.6338395141
 H        -8.8658894681        2.7098402293        0.7306591016
 H        -8.3110697337        4.7739770716        1.7781726148
 H       -10.0988252024        5.0909294321        2.1763085066
 H        -6.3768192837        4.2605892236       -2.3850382425
 H        -7.2271089016        4.5417977346       -3.7670092935
 H        -8.3297014385        2.2766672764       -3.6355643580
 H        -7.6387696113        1.8339922412       -2.2048553684
 H        -5.1422646262       -1.8670836062       -4.4600501163
 H        -6.9191887060       -2.1618635555       -4.7224724069
 H        -5.5864911192       -3.2265275613       -2.0350363461
 H        -5.5700298640       -3.9556461303       -3.6264971219
 H        -6.9558633928       -7.3279157483       -1.5504760864
 H        -8.5509982901       -6.5959628940       -1.8321006099
 H        -8.0921992011       -6.9692761817       -0.2148266153
 H        -8.3166634606       -2.6672321737        0.2423571475
 H        -7.1898542568       -2.0498549203       -0.5476053509
 H        -6.7337170265       -3.2825469563        0.4751287356
 H       -10.0653919712       -3.4739233977       -1.3968034237
 H        -9.9167361363       -5.1953304595       -0.6184115211
 H        -9.5310534755       -4.7468016953       -2.3642464521
 H        -4.4540813684        0.3096410815       -4.9409316279
 H        -3.7378459324       -0.6489839436       -3.6226486391
 H        -3.4216354452        1.1534041605       -3.9169758295
 H        -5.2575692586       -0.0614652336       -1.0067693947
 H        -5.7926065017        1.5448701579       -0.9810336525
 H        -4.2397348183        1.1625510252       -1.3735531178
 H        -9.0705588585        6.8912205998       -2.1720220494
 H        -7.4564104137        6.8050207352       -2.3928890676
 H        -8.0298480271        7.5881554145       -1.0785978871
 H        -6.7106671313        4.3210710939        0.3491165789
 H        -6.6667947557        6.0043565717        0.7399035917
 H        -6.0455872490        5.6816115918       -0.7115285124
 H       -11.8052572507        2.1793921538        5.4246228577
 H       -10.0479307374        1.6360744662        5.0387345042
 H       -11.5967841106        0.7601840886        4.6292593667
 H       -13.1662112528        1.9156507805        2.7580640991
 H       -11.7007475758        0.9300455283        2.1459133584
 H       -12.1511572181        2.5100383397        1.4495069436
 H       -11.3861767658        9.3054404667        5.1559099925
 H       -13.0777459299        9.9308206910        5.0077800517
 H       -11.7968385149       10.1575267624        4.0062119976
 H       -14.5130545845        8.3708775877        4.9134135624
 H       -14.1633665336        6.5357950978        4.3831525173
 H       -14.9223108083        7.5807635962        3.3278095926
 H       -12.6114254501       10.3565315487       -3.4387563565
 H       -14.2757820277       10.5065618689       -3.2124739296
 H       -13.5946833878        9.6144305681       -4.4216220313
 H       -15.6270439747        9.3049903981       -1.8505265906
 H       -15.3632423923        7.5809367655       -1.4777797372
 H       -15.6721652935        8.0080116051       -3.1329007398
 Na      -12.2134637097        5.8270999810        0.9976998376
