117

 C       -14.3800349528        6.4502189782       -3.9720423818
 C       -13.4369909511        7.3234267365       -3.0964512038
 O       -12.2402046938        6.9806626503       -3.1125947596
 C       -13.7653234353        8.6145834486       -2.2556447552
 C       -13.0828732873        8.4256186642       -0.9054527195
 O       -12.8495567943        7.3323261003       -0.4818643618
 C       -12.7629593461        9.8004290151       -0.1816298613
 C       -12.2466947298        9.5704749366        1.1947741808
 C       -13.2584041467        8.7880390513        2.0005921254
 O       -14.4137514672        8.5388294326        1.7173971633
 C       -12.8201889030        8.2739541895        3.4802760584
 C       -11.4982047940        7.2965601141        3.3579239536
 O       -10.6699022022        7.4794485161        2.4409188415
 C       -11.3226001757        6.3916550680        4.5589820980
 C       -10.8201916452        4.9320178286        4.4483270725
 C       -11.6366919729        4.0564353285        3.3801766399
 O       -12.3887706338        4.5841595596        2.5968195561
 C       -11.1148072418        2.5702739781        3.2528190938
 C        -9.5889744326        2.6407953447        2.6052409227
 O        -8.6911986120        2.0959949029        3.1984312772
 C        -9.3922048509        3.4188619441        1.2969676036
 C        -8.8214171836        4.7551951796        1.3107427082
 C        -8.9354782105        5.5318811523       -0.0571678766
 O       -10.0303607140        6.0942422651       -0.2357526492
 C        -7.7229646814        5.4070261555       -1.0525114901
 C        -8.2022587318        4.2311738473       -1.8702119532
 O        -9.3955939867        3.7830995028       -1.6628701247
 C        -7.3982820575        3.5610378757       -2.9941313649
 C        -7.4589549257        1.9925860385       -3.0966595593
 C        -6.0865323732        1.4760535098       -3.5706091710
 O        -5.6776380928        1.9267247421       -4.6327341112
 C        -5.3787849267        0.3729926595       -2.6000454416
 C        -6.4773078817       -0.8421822219       -2.8978546999
 O        -7.5513639516       -0.6013667244       -2.4047406728
 C        -5.9929129122       -2.1816846241       -3.5026396513
 C        -6.4961226570       -3.4261344050       -2.9110371666
 C        -7.9450940595       -3.7594179130       -2.4822109255
 O        -8.8178668863       -3.7587242055       -3.2973694942
 C        -8.2963228222       -4.2588395220       -1.0790436221
 C        -7.2506734470       -5.4371998927       -0.8144643760
 O        -6.0718051281       -5.2079467972       -0.6188519044
 C        -7.6944406955       -6.9856320616       -1.3457096562
 C        -8.0463168934       -3.1036091476       -0.1171909190
 C        -9.8697524648       -4.6129406495       -0.9273979555
 C        -3.9432356373        0.0055373631       -3.2007179902
 C        -5.2576721061        0.8133995378       -1.1839066942
 C        -7.6922260974        6.7060585142       -1.7798869085
 C        -6.3150868766        5.1867090356       -0.3908178071
 C       -11.0089551004        1.8356213819        4.6185605093
 C       -12.1200680288        1.9190494472        2.2591825622
 C       -12.2785291869        9.5096412711        4.1885130587
 C       -14.1043728621        7.7746060025        4.2428448187
 C       -13.2329075908        9.7589450345       -3.0971499933
 C       -15.2979501408        8.7290976530       -1.9503408838
 H       -13.9209614766        5.4753043706       -4.3155947887
 H       -14.7299261705        7.1379293190       -4.8083490617
 H       -15.2002344781        6.2647194019       -3.3146355591
 H       -13.7024548599       10.3499881685       -0.1706208841
 H       -12.0128452292       10.4630768263       -0.7297010879
 H       -12.0026503172       10.5127303073        1.8329148836
 H       -11.3481304813        8.9853221174        1.3066862274
 H       -12.1546723637        6.5566327970        5.1082121016
 H       -10.5369984157        6.8748832726        5.1596453973
 H       -11.0115662450        4.5546407728        5.4196959766
 H        -9.8077608115        4.8041748989        4.0893974471
 H       -10.2146636760        3.4603968177        0.6568895375
 H        -8.6929838412        2.8719153585        0.7407191067
 H        -7.7570142783        4.6541726194        1.6220993848
 H        -9.3978037361        5.4105102775        1.9100952675
 H        -6.3840363855        3.8377759003       -2.9961588336
 H        -7.7756120304        4.1529927111       -3.7711384497
 H        -8.1480447551        1.6008379588       -3.7931555829
 H        -7.8831566261        1.5283063751       -2.2246219916
 H        -4.9326126668       -2.0593969239       -3.5443117794
 H        -6.3283847632       -2.1360384346       -4.5943733705
 H        -5.8910506677       -3.5319818449       -1.9602579402
 H        -6.2337931449       -4.2353533161       -3.5525446691
 H        -7.0001230763       -7.7552154946       -0.7931344616
 H        -7.4511272722       -6.8650252428       -2.3976887918
 H        -8.7034442118       -7.3705715732       -1.1646329277
 H        -8.2060054609       -3.3530016657        0.8799169551
 H        -8.6259757252       -2.1941672348       -0.1789538208
 H        -7.0326470459       -2.6098817401       -0.1893875372
 H       -10.4055362840       -3.8534408280       -1.4807758780
 H       -10.0266951895       -4.5854661493        0.1477820950
 H       -10.0400430812       -5.5748036577       -1.2491506387
 H        -4.0291451144       -0.4557533575       -4.2226845603
 H        -3.4720646277       -0.7243295014       -2.5569341670
 H        -3.4098158836        0.8810561642       -3.3681011228
 H        -4.4159942617        0.5439160490       -0.5250128671
 H        -6.0449773669        0.3966170055       -0.5092777973
 H        -5.3531226015        1.9211206215       -1.1510883064
 H        -8.6410546724        7.0900332518       -2.0985066289
 H        -7.0587016457        6.8861608826       -2.6869458966
 H        -7.2259613908        7.5246007244       -1.0929057093
 H        -6.4075008352        4.3420554108        0.2345838997
 H        -5.9758787480        5.9473461837        0.3287480432
 H        -5.5022543702        5.0794177680       -1.1008434847
 H       -11.3784529764        2.3177541524        5.5213827903
 H        -9.9012989556        1.6952538527        4.6444383927
 H       -11.5204350877        0.8559173018        4.5804965416
 H       -12.9654038755        1.9253011443        2.8972097825
 H       -11.6813451994        0.9186488521        1.9938879565
 H       -12.2449014642        2.4869091704        1.4212673624
 H       -12.3322032162        9.5324986829        5.2962391749
 H       -12.5392725293       10.5350479617        3.8527948566
 H       -11.2247732775        9.6002882972        4.1873523379
 H       -14.7968963102        8.4604120316        3.9838129280
 H       -13.8007607306        7.5684255873        5.2846453149
 H       -14.2551525087        6.6949182709        3.8236065732
 H       -12.3249027014       10.3047298315       -2.8265871613
 H       -13.9034380452       10.6253879982       -3.2132392561
 H       -12.9341202177        9.5259036392       -4.1276579262
 H       -15.5302761908        9.6075057211       -1.3582476908
 H       -15.7561534854        7.9718169253       -1.3757935672
 H       -15.7871400661        8.7828781284       -2.9258515930
 Na      -12.0890537088        6.1070650852        1.0262407881
