117

 C        -8.8812400552       -5.5591518929        4.9810061518
 C        -7.6274760742       -4.8293819185        4.6778705088
 O        -7.3065685435       -4.4374702037        3.5481828580
 C        -6.6674564580       -4.3101232705        5.8864731169
 C        -6.4809510721       -2.7243352290        6.1396185051
 O        -5.6060693048       -2.4304635035        6.9647067815
 C        -7.2955096911       -1.7663637426        5.2515037743
 C        -6.6386523782       -0.3711177512        5.3993088986
 C        -7.6583838416        0.7495186089        4.9627608927
 O        -8.6681776514        0.3658075053        4.4418309758
 C        -7.2604453696        2.3519799628        5.0236184203
 C        -6.8679038315        2.5864499444        3.5530462880
 O        -5.7327278249        2.3862601030        3.1055374937
 C        -7.9935440527        3.1270627923        2.6800108140
 C        -7.8592881626        2.9511896399        1.1723225160
 C        -9.1340677483        3.3300988360        0.4360205762
 O        -9.2424560640        4.5328355457        0.1074531546
 C       -10.2049127836        2.2888111668        0.1642760177
 C       -11.5068439190        2.9197722597        0.8524411411
 O       -11.4537137827        3.3181156232        1.9836402715
 C       -12.8102919586        2.5974186040        0.1427868798
 C       -13.9211303308        3.7031304731        0.1966117111
 C       -13.5013133834        4.9788143578       -0.5582672194
 O       -12.3682271722        5.3324808355       -0.4204901704
 C       -14.3729168305        5.7095401217       -1.6126371352
 C       -13.6072992158        5.4142687690       -2.9749718495
 O       -12.4674007796        5.0691139903       -3.0951455765
 C       -14.4416337074        5.5529147648       -4.3243204299
 C       -13.5577614460        6.0799440955       -5.4617053789
 C       -13.1577433066        7.5165955161       -5.2040831012
 O       -13.3185095396        7.9262380205       -4.0319671144
 C       -12.2877541841        8.5274620634       -6.2138623689
 C       -10.8527369634        8.3377588226       -5.7173282417
 O       -10.2928001798        7.3564735111       -6.1034289500
 C       -10.4573380920        9.3294866888       -4.5701644810
 C        -9.0615430780        9.2491083230       -3.9803567734
 C        -8.9249013422        8.0824132931       -3.0278453023
 O        -9.9214333053        7.4665677906       -2.6431292070
 C        -7.4864477417        7.5593520113       -2.7291659026
 C        -7.6400488732        6.0109167872       -3.3338207207
 O        -8.1691890831        5.1041726234       -2.6701118925
 C        -7.1780464292        5.8261039106       -4.7804428898
 C        -6.4125662186        8.5318695004       -3.3022514232
 C        -7.4100844246        7.4981156354       -1.1311744129
 C       -12.3416233656        8.0566510944       -7.7402078842
 C       -12.9921268812        9.9489782694       -6.1503023436
 C       -15.8970757182        5.5695392416       -1.5624128134
 C       -14.0727682288        7.2914763785       -1.3941195550
 C       -10.3169679397        1.9727959128       -1.2824384645
 C       -10.0559436831        0.9145718054        0.9493669251
 C        -8.5292092106        3.1063229721        5.5698103782
 C        -6.0793524656        2.5529246815        5.9884499711
 C        -7.1185226193       -5.0831855195        7.2282459991
 C        -5.2680583465       -4.7224856667        5.5432095700
 H        -9.6311399686       -5.3163259683        4.2453145630
 H        -9.2440489242       -5.2676984645        5.9568203924
 H        -8.7752158199       -6.6294656249        5.0268578427
 H        -8.3346784392       -1.7061183389        5.6231667474
 H        -7.3633491903       -2.0951587216        4.1831289980
 H        -5.6901404950       -0.1287953928        4.7331042354
 H        -6.2023644895       -0.1676835711        6.4174950320
 H        -8.0801766059        4.2638479916        2.9471696062
 H        -8.8978794738        2.5927656809        3.0023327194
 H        -7.6475580370        1.9080120601        0.9049084918
 H        -7.0784225080        3.5453768144        0.7281676681
 H       -13.2256754170        1.6264770044        0.4608955311
 H       -12.7252248739        2.2188235462       -0.8566386585
 H       -14.1034775027        3.9513158932        1.2595254563
 H       -14.7927915673        3.2580167937       -0.1430116170
 H       -15.3500902877        6.1526949184       -4.1518416031
 H       -14.8370426500        4.5429268776       -4.5029000308
 H       -14.1206599904        5.8486891374       -6.3950329636
 H       -12.6520051829        5.3462207455       -5.5525442594
 H       -11.1022301398        9.0598284433       -3.6518633639
 H       -10.7636809451       10.3219621857       -4.8618632204
 H        -8.8805567939       10.1471476840       -3.2768351904
 H        -8.3039601015        9.2693162501       -4.7305118349
 H        -7.8257510997        6.4315150050       -5.5104366143
 H        -7.5355619050        4.8843112631       -5.1230648943
 H        -6.1437638503        5.8987901249       -4.9019978805
 H        -6.4503968270        9.5995655269       -3.0616820763
 H        -6.4329254280        8.3340648924       -4.3794824378
 H        -5.3967932285        8.1872785022       -2.9800490979
 H        -8.2256840565        6.9395298035       -0.6527534997
 H        -7.5074003786        8.4946493908       -0.7591516927
 H        -6.3975686946        7.0823746583       -0.8183849700
 H       -12.2589684887        7.0158861429       -7.8369595503
 H       -11.4793809503        8.4350925270       -8.2100180263
 H       -13.2391625560        8.3765448626       -8.2985485412
 H       -12.2925248373       10.6065697769       -6.6417148919
 H       -12.9635580223       10.1763659592       -5.1383298912
 H       -13.9111824286       10.0076787385       -6.6494084383
 H       -16.3611898068        5.7337031021       -0.6274025042
 H       -16.2199209736        4.6246476160       -1.8443774506
 H       -16.3288574816        6.1964258836       -2.3563310396
 H       -14.3214654692        7.5965955776       -0.3711897412
 H       -14.5816412194        7.9018364893       -2.0511642480
 H       -13.0429738674        7.4014517265       -1.4782546069
 H       -11.1013539063        1.2914434456       -1.5247752922
 H        -9.3837000196        1.3814228382       -1.6200595458
 H       -10.4100695269        2.9382264855       -1.9186489687
 H        -9.8660562500        1.1980161590        2.0145973735
 H        -9.2864202446        0.2971910271        0.3650227012
 H       -10.9814887708        0.4044724602        0.8633340441
 H        -8.3988403934        3.3783738630        6.6214002864
 H        -9.4271757186        2.4327981458        5.5245218459
 H        -8.7130222235        4.0399646405        5.1365507042
 H        -6.4313482079        2.3275392787        6.9688378401
 H        -5.5419844361        3.5180536081        5.8807806179
 H        -5.3722741981        1.8465167598        5.6478548994
 H        -8.0564694868       -4.6865369190        7.6728153987
 H        -6.3834558977       -4.9478683229        7.9845825822
 H        -7.2737198971       -6.1241840875        6.8832045791
 H        -5.0620954348       -4.4047777548        4.5677827626
 H        -5.0793292395       -5.7441553262        5.6918215726
 H        -4.5784593608       -4.2960287210        6.1983128747
 Na      -10.4954022056        5.6650042102       -1.5260357255
