117

 C       -15.1065669832        6.9054126739       -4.0161810120
 C       -13.8741656545        7.4219815003       -3.4450523811
 O       -12.7298005001        7.0384287911       -3.7833660309
 C       -13.9386569758        8.6203524337       -2.5128322725
 C       -13.2343317828        8.3926987140       -1.1424244874
 O       -13.2156778725        7.2611228888       -0.6971344671
 C       -12.6211313536        9.5739648606       -0.3654363019
 C       -12.3888418753        9.4362440246        1.1455424984
 C       -13.3646418827        8.8909911591        2.1748797587
 O       -14.5254495286        8.7671668486        1.9704441828
 C       -12.8408933117        8.4597924770        3.6648816599
 C       -11.6931265293        7.3945582504        3.5926465138
 O       -10.8269391913        7.4387830961        2.6829120100
 C       -11.2718251927        6.4071762242        4.6783518940
 C       -10.5741268605        5.2157802883        4.1846876437
 C       -11.5048535894        4.3176620272        3.1173416055
 O       -12.1612159715        4.9171539205        2.3106465569
 C       -11.0466432819        2.7834190433        3.1328159362
 C        -9.4720685673        2.7746231626        2.5108571299
 O        -8.5798204780        2.3373373349        3.1787897935
 C        -9.2967584155        3.5715541803        1.1959288798
 C        -8.2166712610        4.5811279958        1.2289788489
 C        -8.4432763273        5.5181980961       -0.0084858725
 O        -9.1651988649        6.5651201991        0.0444398413
 C        -7.5814961410        5.3119997768       -1.1834914982
 C        -8.0916559212        4.1120632895       -1.9650610278
 O        -9.1673138177        3.5850063650       -1.7437424258
 C        -7.2285010719        3.5910969934       -3.2420181418
 C        -7.2351280514        2.0400285098       -3.2407921003
 C        -5.9025481512        1.3503180471       -3.3789822827
 O        -5.2525425870        1.6132357313       -4.3615304631
 C        -5.4944834708        0.2037361551       -2.4484575373
 C        -6.5488097744       -0.9991749876       -2.6226163955
 O        -7.6283057008       -0.9597963690       -2.0049114688
 C        -6.3984350657       -2.2970412758       -3.5461266314
 C        -6.6371357818       -3.5127476567       -2.5968613544
 C        -8.1093266444       -3.7854337029       -2.2665702324
 O        -9.0087712305       -3.4395602794       -2.9860833545
 C        -8.5363723491       -4.5777047381       -0.7868234011
 C        -7.4757412864       -5.6846398131       -0.7111096373
 O        -6.4091331517       -5.3600845157       -0.2542049784
 C        -7.6728359004       -7.1731963886       -1.3207560917
 C        -8.2995829133       -3.4597514399        0.2360592081
 C       -10.1102828838       -4.8651598676       -0.7658240597
 C        -4.0866262514       -0.2716777001       -2.7521560653
 C        -5.6025824948        0.5230324777       -0.9351331745
 C        -7.5672977831        6.4545609920       -2.1208168996
 C        -6.1160787271        4.8518584108       -0.7293725943
 C       -11.1431276219        2.1569969856        4.5869513557
 C       -11.8453441634        1.8551643901        2.2070379960
 C       -12.4224728617        9.6941695540        4.3387032284
 C       -14.0925831525        7.9592098874        4.4696760503
 C       -13.3187397879        9.8673899502       -3.3502148691
 C       -15.4082668525        8.9220527562       -2.2582598227
 H       -14.7837272387        6.1096581421       -4.7146022568
 H       -15.5131971923        7.7339379352       -4.6429799181
 H       -15.6810535812        6.3611581680       -3.2677549217
 H       -13.1332288377       10.4219015269       -0.6863423752
 H       -11.6102678761        9.8148298099       -0.8463446652
 H       -12.1468150007       10.4024136013        1.5799188782
 H       -11.4417223583        8.9898245879        1.3096339446
 H       -12.0592534155        6.2683796858        5.3692783779
 H       -10.5862980530        7.0909346673        5.2665958066
 H       -10.2680289087        4.6140901286        5.0901502155
 H        -9.8603929157        5.4355968608        3.4026061222
 H       -10.2569495324        4.0242673520        0.8148106993
 H        -9.0158194069        2.6995690731        0.4515428850
 H        -7.2968794569        3.9722424677        1.3028202293
 H        -8.3330511949        5.2035722261        2.1305269955
 H        -6.1143757100        3.9674832296       -3.2271250929
 H        -7.6318301767        3.8621694178       -4.2870824797
 H        -7.9594661892        1.5888140813       -4.0573986316
 H        -7.6718982116        1.6118931602       -2.2276184804
 H        -5.3794361339       -2.3864389688       -3.9527740591
 H        -6.9656773202       -2.0566506050       -4.4271536447
 H        -6.0168898242       -3.3481745060       -1.7602488907
 H        -6.2952979009       -4.3643523549       -3.2000541166
 H        -7.2772191409       -7.6954952952       -0.4313105237
 H        -7.0361816697       -7.2296579467       -2.1680236122
 H        -8.5928328119       -7.5970519007       -1.4620444124
 H        -7.6423391599       -3.7118203549        1.0803865576
 H        -9.1224635511       -2.9886452594        0.7443066211
 H        -7.8653048913       -2.5233017558       -0.1602962623
 H       -10.5064681219       -3.8550461721       -0.9004178340
 H       -10.2805960606       -5.1424542522        0.3258894190
 H       -10.4441952906       -5.5955579844       -1.4315140581
 H        -4.0337150870       -0.4865169089       -3.8533486658
 H        -3.9110189247       -1.2637847445       -2.2155466381
 H        -3.4062961756        0.4570832361       -2.4552197065
 H        -4.9034202351        1.3303332770       -0.5655915898
 H        -5.1846113793       -0.3032030855       -0.4521306128
 H        -6.5226932527        0.7410756988       -0.4915433465
 H        -8.4967605260        6.7005210973       -2.5072305278
 H        -7.0541249986        6.3076056381       -3.0410249974
 H        -7.2048751696        7.4341233352       -1.7329753346
 H        -6.1012601889        3.7205904827       -0.5164625767
 H        -5.9439629712        5.3200083451        0.2867138825
 H        -5.3175477093        4.9450464575       -1.4633740639
 H       -12.2529767120        2.1105319014        4.7742923639
 H       -10.7180351225        2.7908019504        5.3548884248
 H       -10.7686906791        1.1072561130        4.5333935323
 H       -12.8629502620        1.8872990019        2.6938475731
 H       -11.2440226518        0.8398909052        2.2296711104
 H       -11.8992269284        2.3556401540        1.2483992575
 H       -11.7901671563        9.6608330287        5.2897537033
 H       -13.2519557430       10.2247177392        4.8059926182
 H       -12.0131081065       10.4739441519        3.7898918578
 H       -14.8741454208        8.3103436486        3.9047624071
 H       -14.0374514276        8.4689159953        5.4378543630
 H       -14.0431771039        6.8134577379        4.3933330219
 H       -12.8349532661        9.5255385680       -4.2510710808
 H       -12.4294916979       10.4125815465       -3.0326572160
 H       -13.9947220008       10.6638173866       -3.7215349486
 H       -15.7258557369        9.7144326611       -1.5622648249
 H       -15.8027349689        8.0391884163       -1.7501731058
 H       -16.0099029183        9.0673509529       -3.1777537361
 Na      -11.3151374783        6.3979900935        0.5613989954
