117

 C       -15.4336422169        6.8460273753       -4.2262497287
 C       -14.0714081724        7.4853703545       -3.6153343384
 O       -13.0878106131        7.0355392995       -4.0765736004
 C       -14.1119015775        8.6775111821       -2.5214763475
 C       -13.3387314967        8.4061868011       -1.2237212291
 O       -12.9632989009        7.2682582240       -0.9002119597
 C       -13.0117828898        9.6674230703       -0.3106812888
 C       -12.3150298498        9.3867530069        1.0406649709
 C       -13.2962597396        8.9405442184        2.1667505088
 O       -14.4216476720        8.8034418632        1.7411144188
 C       -12.9202052684        8.5295206159        3.6202907453
 C       -11.7706426911        7.5299139957        3.6325877431
 O       -10.9477355676        7.5797160913        2.7745214903
 C       -11.6788775623        6.4157929347        4.7040849122
 C       -10.5509569595        5.4134258978        4.2419838931
 C       -11.2951998767        4.4449167975        3.2105824382
 O       -11.9526639337        4.8882567290        2.2438134583
 C       -10.9345489885        2.9666027412        3.0953644486
 C        -9.4804627658        2.8834316621        2.5249100380
 O        -8.6187156232        2.5466115535        3.3217728155
 C        -9.2281638349        3.4377066528        1.1311249240
 C        -8.0848558824        4.6053825219        1.1135192512
 C        -8.0956776007        5.4442724382       -0.0636316658
 O        -8.6684149680        6.4807275823        0.0679695018
 C        -7.1516228621        5.2621248865       -1.3866920882
 C        -7.9472147104        3.8693844851       -2.1550087174
 O        -9.0577016356        3.6744499885       -1.7364386871
 C        -7.2016335963        3.2401435566       -3.2487347479
 C        -7.2658550851        1.6941759760       -3.3642210978
 C        -5.9014238453        1.0646161348       -3.3438419043
 O        -5.0179602024        1.5407924565       -4.0200649975
 C        -5.5564661299       -0.1329511063       -2.3420023478
 C        -6.8437740390       -1.1333052430       -2.2905443799
 O        -7.8137514210       -0.9028770146       -1.6222065459
 C        -6.6212746319       -2.3729628714       -3.3216338456
 C        -6.8148816152       -3.6779492410       -2.4715741332
 C        -8.2389320477       -3.7866585604       -2.0167868870
 O        -9.0494193191       -3.2496733212       -2.7693320176
 C        -8.5438053313       -4.5486451457       -0.7929398501
 C        -7.5016852339       -5.7791331224       -0.6194991312
 O        -6.5043757982       -5.6583256923        0.0983739036
 C        -7.8898450008       -7.0772050360       -1.2391076611
 C        -8.3441533402       -3.5303275214        0.3457471208
 C        -9.9394601859       -5.1777392269       -1.0043153852
 C        -4.2706843643       -0.8152036270       -2.5862085522
 C        -5.6013225859        0.6737763018       -1.0027204156
 C        -7.2072765857        6.4420252870       -2.3291511997
 C        -5.7159434336        4.9891629986       -1.1124777043
 C       -10.9500457572        2.2050661112        4.4995665668
 C       -11.9710497589        2.3041104232        2.1223510530
 C       -12.2702638807        9.7769929317        4.4690782267
 C       -14.1371227449        7.9299742326        4.3954124763
 C       -13.4079968667        9.7885400528       -3.2252969418
 C       -15.5131347870        9.2147902003       -2.1253988046
 H       -15.2920883332        6.0557520410       -4.9309049374
 H       -15.9575702917        7.6585548574       -4.6968214595
 H       -15.9129618944        6.3444387911       -3.3313905226
 H       -13.9348781132       10.3810744685       -0.1937102026
 H       -12.4332001910       10.3410510758       -0.8960624656
 H       -11.7261889553       10.2750321935        1.3654346488
 H       -11.4435424399        8.6443957847        0.9868484580
 H       -12.7485066653        6.0658589087        4.5866935643
 H       -11.6822628206        6.7852901600        5.6751439978
 H       -10.3101760186        4.7285129437        4.9863852450
 H        -9.7870724746        5.9124444353        3.6699171932
 H       -10.1042415522        4.0197394539        0.9752439946
 H        -9.1178155626        2.6574590752        0.4489641454
 H        -7.1077449024        4.1684733345        1.1669787010
 H        -8.2304907226        5.1232224695        2.0781318846
 H        -6.2511364220        3.6338108513       -3.3452421373
 H        -7.7337518601        3.4716832423       -4.1218556889
 H        -7.5633637045        1.4471862842       -4.3520176485
 H        -7.8538094322        1.2440162647       -2.6609910450
 H        -5.7343441818       -2.2982405625       -3.9675929570
 H        -7.3676412844       -2.3032008597       -4.1435080441
 H        -6.3242690667       -3.6282288814       -1.4840930106
 H        -6.4870103711       -4.4761811711       -3.1466709341
 H        -7.9014121413       -7.9535755024       -0.6274646988
 H        -7.3817471492       -7.1180902952       -2.2576745377
 H        -8.9594279783       -6.8654303669       -1.4400954571
 H        -7.6318145598       -3.7394866160        1.1568161677
 H        -9.2958964854       -3.3452175991        0.8738712028
 H        -8.1018926614       -2.5251568282        0.0877019279
 H       -10.6229923357       -4.3629403388       -0.9674807681
 H       -10.1132895651       -5.9780813834       -0.3642506373
 H        -9.9036532538       -5.5377701484       -2.0698571011
 H        -4.2560820614       -0.7896793916       -3.6336934854
 H        -4.2495891201       -1.8316671560       -2.2545315086
 H        -3.3710875955       -0.3132487349       -2.0682345444
 H        -5.5510046880        1.7409784181       -1.1833025734
 H        -4.8299093780        0.4751174909       -0.2187096908
 H        -6.5560450606        0.5045653842       -0.3905657617
 H        -8.2310017464        6.8291247853       -2.7165175376
 H        -6.7568406749        6.2765518785       -3.3372755398
 H        -6.7818530539        7.3569267905       -1.9515511094
 H        -5.4152472342        3.9807082716       -0.9451792759
 H        -5.2996327993        5.6577545104       -0.3904448592
 H        -5.2440661055        5.1125195855       -2.0974138204
 H       -11.8855857474        1.6455979911        4.5637461232
 H       -10.9526339964        2.9530010512        5.3027041758
 H       -10.0719871168        1.5541315982        4.5576101937
 H       -12.9160256692        2.6580751524        2.4601975832
 H       -11.8352442460        1.3118737565        2.1075654075
 H       -11.7702563282        2.8431727742        1.1868550475
 H       -11.6738068850        9.5532434710        5.3004180596
 H       -12.9156980605       10.3905780117        5.0549123796
 H       -11.7916247308       10.5187918878        3.7792284623
 H       -14.6989448052        8.8373870659        4.9105048119
 H       -13.7488591605        7.4412634782        5.2669214838
 H       -14.6849529318        7.5659133306        3.6344763417
 H       -13.7643779221       10.2004007364       -4.1777739681
 H       -12.3962325095        9.5385164420       -3.5759316234
 H       -13.2719440362       10.6680722938       -2.5813645219
 H       -15.4060779982        9.9179602034       -1.3193496456
 H       -16.3080550504        8.5160960751       -1.8081512724
 H       -15.9054198601        9.8617175968       -2.8789037747
 Na      -11.2092576246        6.7332954393        0.3707567399
