117

 C       -15.5781912553        6.9641129717       -4.0951437579
 C       -14.2534241433        7.4768897919       -3.5455373058
 O       -13.1839360922        7.1480795551       -4.0075635224
 C       -14.1697091409        8.7963838716       -2.5120244221
 C       -13.3730322347        8.3987342527       -1.2289061158
 O       -12.7613266274        7.3100889990       -1.0432805822
 C       -13.1531674571        9.6492020229       -0.3219301406
 C       -12.4003387186        9.5676718769        0.9199681845
 C       -13.3537916196        8.9663445505        2.0896553636
 O       -14.4925952963        8.7416578268        1.8132760918
 C       -12.8461387396        8.6012671276        3.5467625491
 C       -11.8277564367        7.5161033728        3.5082327181
 O       -10.8331776729        7.5520826046        2.8008282595
 C       -11.8665001519        6.3318508844        4.6108569664
 C       -10.7030423116        5.3560717580        4.3248621134
 C       -11.1388569494        4.4977861865        3.1072108401
 O       -11.7560141645        5.1192219925        2.1634859386
 C       -10.8931599779        3.0114309173        3.0896090069
 C        -9.3865128222        3.0062488293        2.5421072175
 O        -8.4307809989        2.6748476550        3.2019754195
 C        -9.1850758286        3.4695140854        1.0941529700
 C        -7.9107835659        4.4583725119        1.1502472867
 C        -7.9169488467        5.4830527864       -0.1248348543
 O        -8.6591928189        6.4393176991       -0.1421167439
 C        -7.0351477459        5.1892939005       -1.4863125748
 C        -7.8025987797        3.8807295866       -2.1294075696
 O        -8.9090539141        3.6721889452       -1.7760144372
 C        -7.1481911857        3.1574578644       -3.3703848231
 C        -7.3589694834        1.5233392675       -3.3944260536
 C        -5.8931636031        0.9677504315       -3.2948321196
 O        -4.8741886744        1.3697051666       -3.8097714639
 C        -5.6548951409       -0.1181038514       -2.1862852735
 C        -6.7854281826       -1.1041561298       -2.2490224854
 O        -7.8609631973       -1.0408232125       -1.5994948167
 C        -6.7110758033       -2.2571565866       -3.2298410924
 C        -6.7516242902       -3.5963952183       -2.4746671617
 C        -8.2701628760       -3.7577912474       -2.1066601950
 O        -9.2598168959       -3.3112394968       -2.6492841263
 C        -8.5897315977       -4.6661385950       -0.7421646750
 C        -7.6306751337       -5.8106727718       -0.5119852433
 O        -6.6608141197       -5.7087976417        0.1936497049
 C        -7.8535422470       -7.1761528902       -1.2684392615
 C        -8.4327816331       -3.7307949886        0.5059464257
 C       -10.0648758587       -5.1778415427       -0.8983811584
 C        -4.3054319372       -0.8982797617       -2.5395050084
 C        -5.5408219997        0.7656655769       -0.9179966084
 C        -7.2407316272        6.3625067748       -2.3410538145
 C        -5.5568802455        4.9266523482       -1.2334243563
 C       -11.0259569471        2.2466555314        4.4917102866
 C       -12.0379844369        2.4185389242        2.1066634663
 C       -12.2916713044        9.7906974582        4.3130785657
 C       -14.2053932344        8.1193818793        4.2969709147
 C       -13.3709008177        9.8773524426       -3.3161197172
 C       -15.6281636519        9.2039578911       -2.1663682206
 H       -15.5482969875        6.2675371197       -4.8478827155
 H       -15.9984933930        7.8409994653       -4.4349353300
 H       -16.0628548469        6.4812050814       -3.2290181693
 H       -14.1440561609       10.0754419034       -0.0383293604
 H       -12.9018874130       10.4886762767       -0.9842146910
 H       -12.2125984483       10.6008387921        1.1873565812
 H       -11.3736967996        9.1440373517        0.9059409334
 H       -12.9082509337        6.1030314405        4.9336957123
 H       -11.5189803525        6.9969287434        5.4617272649
 H       -10.5083556360        4.6804466994        5.1800663519
 H        -9.9226645625        6.0143092032        3.9524802267
 H       -10.0306670606        4.0231270579        0.7707717507
 H        -8.9160163205        2.5601510527        0.4885593392
 H        -7.1075561534        3.7640051167        1.1959281508
 H        -7.8530659871        4.9162261074        2.1520784382
 H        -6.0858996570        3.3729491237       -3.5472242630
 H        -7.6789200061        3.4950262689       -4.2092988103
 H        -7.7264874678        1.0813704947       -4.2838944873
 H        -7.7986985537        1.2589938803       -2.4508217286
 H        -5.8407847441       -2.0808190802       -3.9339316210
 H        -7.4624135439       -2.2628550912       -4.0063979007
 H        -6.1868253453       -3.7244462424       -1.5465592219
 H        -6.5471964698       -4.3279255146       -3.3778161737
 H        -7.6038897467       -7.9461577796       -0.5282836673
 H        -7.2248264947       -7.1650927435       -2.2164132274
 H        -8.8463873803       -7.3157473450       -1.4991085655
 H        -7.5670908261       -3.8657398317        1.1991863273
 H        -9.2972990456       -3.7264540765        1.1745517822
 H        -8.3045735363       -2.7130780786        0.2918363076
 H       -10.6579936851       -4.2910824870       -0.9363234642
 H       -10.3465983476       -6.0041024095       -0.2098225540
 H       -10.0462696999       -5.5491219388       -1.9020084178
 H        -4.3428864226       -1.0498045190       -3.5995645329
 H        -4.1468652920       -1.8475353585       -1.9651965676
 H        -3.5067078235       -0.3123493102       -2.2350912298
 H        -5.3909605318        1.9033684650       -1.2049289438
 H        -4.7451472075        0.4760147791       -0.2841515328
 H        -6.3432522314        0.7190977416       -0.1745756232
 H        -8.2091393771        6.7986225237       -2.5901277991
 H        -6.8411037335        6.2708125849       -3.3298180697
 H        -6.7530279709        7.2128646791       -1.8799277790
 H        -5.3471732222        4.0302570385       -0.6725471096
 H        -5.1380536232        5.8313339449       -0.8507338742
 H        -5.1206004580        4.6948362250       -2.1420873322
 H       -11.9909718441        1.7324023776        4.3832027828
 H       -11.1180041627        2.9197176261        5.2900483721
 H       -10.1766715284        1.5625995705        4.6257347895
 H       -13.0188490580        2.7147227906        2.3620451904
 H       -11.9160185132        1.3207406114        2.0307408596
 H       -11.7494927840        2.9028462937        1.2733980314
 H       -12.0961606544        9.5778145026        5.4068361508
 H       -12.9831216027       10.5403387125        4.5659283146
 H       -11.5204794003       10.3653758083        3.8247852392
 H       -14.6906304915        8.9262348012        4.8137181118
 H       -13.9810709893        7.4811065279        5.1785602464
 H       -14.7719653371        7.9438540907        3.3607072209
 H       -13.9764806790       10.5599221302       -3.8371000007
 H       -12.7219959000        9.6301534561       -4.0885718093
 H       -12.8034132066       10.5265684884       -2.6321306643
 H       -15.6011563911       10.0503907273       -1.5123503452
 H       -16.2476677736        8.4384197444       -1.7010745743
 H       -16.1585935487        9.6180375580       -2.9964891724
 Na      -11.0365479191        6.6685517470        0.5232832184
