117

 C       -15.7956160541        7.0268918201       -3.7421998297
 C       -14.3221307064        7.4561189459       -3.4603793525
 O       -13.3458501084        6.9739689134       -3.9437651059
 C       -14.2450965818        8.9312414494       -2.5754949036
 C       -13.2524310318        8.7301302002       -1.3592743944
 O       -12.4504829936        7.8400376032       -1.1889428585
 C       -13.3199567077        9.9090462150       -0.3816750786
 C       -12.6376352769        9.6695631969        0.9747876508
 C       -13.6173361183        8.9100065051        1.9497470099
 O       -14.7490909442        8.5719682965        1.7014634488
 C       -12.9739404401        8.7215700074        3.5156601664
 C       -11.9465199613        7.6191537752        3.4698705967
 O       -10.9161884368        7.8367203736        2.7964945925
 C       -11.9555904098        6.5492282298        4.6160751300
 C       -10.9838282259        5.4044823349        4.4178761728
 C       -11.0532333666        4.5586049655        3.0948809474
 O       -11.2838056285        5.1446877809        2.1032762356
 C       -10.7647391077        3.0493695345        2.9387660859
 C        -9.3206316436        3.1447667153        2.4173970580
 O        -8.4815108312        2.8256970757        3.2304597381
 C        -8.9858331286        3.5564780242        1.0324623439
 C        -7.6247319204        4.2885065352        0.8252515295
 C        -7.8095172179        5.2464069584       -0.3155679922
 O        -8.7212199282        6.0590548084       -0.4125554264
 C        -6.9447033673        5.0098238209       -1.6446967001
 C        -7.6026017489        3.7969836795       -2.3401922562
 O        -8.6563343770        3.3922631344       -1.8585549150
 C        -7.0241953523        3.1508020713       -3.5642718578
 C        -7.1049495236        1.7525070166       -3.2821529465
 C        -5.7212799302        1.0163595843       -3.0693333738
 O        -4.8753566491        1.3257487864       -3.8846975924
 C        -5.5762491518       -0.0706114426       -1.9423882388
 C        -6.8747965784       -1.0711236632       -2.0384002393
 O        -7.7350688670       -0.9261924148       -1.2615853336
 C        -6.9549412950       -2.3284520247       -3.0455270986
 C        -7.0515529451       -3.7711712058       -2.4063911592
 C        -8.6122866207       -4.0368064663       -1.8875652508
 O        -9.4863913265       -3.5102909342       -2.5968378034
 C        -8.8582235691       -4.8556592769       -0.5938820193
 C        -7.7107989952       -6.0931300011       -0.5023431323
 O        -6.8410410829       -5.8845389918        0.3503449005
 C        -7.7271056934       -7.2861771349       -1.3164677210
 C        -8.6771035342       -3.9114375849        0.6517080931
 C       -10.3684387540       -5.2041679195       -0.6234972278
 C        -4.1585832606       -0.8358880102       -2.1304443526
 C        -5.6210320093        0.3611859191       -0.5485756129
 C        -7.0484752023        6.2408758953       -2.6570406082
 C        -5.5304939419        4.7938734430       -1.3007089080
 C       -10.9137055364        2.1813584130        4.3046908911
 C       -11.6738275496        2.4126005621        1.7885003521
 C       -12.2171908527       10.0886826505        3.9065176777
 C       -14.2063541555        8.4143244306        4.4015003522
 C       -13.6574305439       10.0613201776       -3.5739603190
 C       -15.5540092399        9.4127145340       -2.0309440637
 H       -15.5003076590        6.0818157366       -4.2526864895
 H       -16.1454111074        7.6686940292       -4.5876865356
 H       -16.4989304734        6.8384150507       -2.8653473838
 H       -14.3413768355       10.2365328102       -0.3070225558
 H       -13.0132430651       10.7783306088       -0.9443064224
 H       -12.3729979726       10.6205338810        1.4323724458
 H       -11.7218186392        9.0952205368        0.9102974784
 H       -12.9845047800        6.2527299453        4.6667047841
 H       -11.8559277834        7.0555509457        5.5462441158
 H       -11.1786500829        4.7482805325        5.2537451276
 H        -9.9255228896        5.7805095216        4.2938531004
 H        -9.7938423401        4.3360380707        0.7875928033
 H        -8.9301752098        2.7066257451        0.3740203465
 H        -6.8215085845        3.5050424902        0.7562546685
 H        -7.3318993454        4.8459893273        1.7215819603
 H        -5.9536848533        3.4333516978       -3.7245335318
 H        -7.6686221815        3.4943114947       -4.4852280739
 H        -7.3991505642        1.1937729610       -4.2584500775
 H        -7.6831006295        1.6851908500       -2.3146379270
 H        -6.4797027097       -2.1483901196       -3.9545655034
 H        -7.9541858005       -2.0732876620       -3.4813628588
 H        -6.2951582067       -3.7676756924       -1.5904059396
 H        -6.8985815644       -4.4860768611       -3.1054420248
 H        -7.2394852506       -8.0331966127       -0.7753710708
 H        -7.2813080204       -6.9717753592       -2.2362769876
 H        -8.7769515445       -7.6075527998       -1.5642440978
 H        -7.7740937495       -3.3176282105        0.6258337930
 H        -8.7293528774       -4.3589518598        1.6557466734
 H        -9.3379090545       -3.0037739179        0.6489267514
 H       -10.9012782925       -4.2987946069       -0.9578464543
 H       -10.5601697367       -5.6095336380        0.3291111566
 H       -10.5074330826       -5.9867089650       -1.4209834345
 H        -4.0718784817       -1.5224201233       -2.9663980763
 H        -4.0322351371       -1.2951977972       -1.2044789821
 H        -3.2672339488       -0.0802403958       -2.0196073941
 H        -5.1696509675        1.2284642183       -0.3956194644
 H        -5.5057065194       -0.3694909444        0.2697813970
 H        -6.6704308606        0.5273814454       -0.3512519862
 H        -8.0579692031        6.5639817585       -3.0260667117
 H        -6.4981847122        6.1165480859       -3.5773028228
 H        -6.8004390124        7.1990514226       -2.3264079325
 H        -5.4898912027        4.4968503106       -0.2410433068
 H        -5.0017726510        5.7563177068       -1.5618810965
 H        -5.0103489206        3.8880240208       -1.8231123929
 H       -11.8798935629        1.6794444412        4.3722058359
 H       -10.7564951184        2.9282770618        5.1265930738
 H       -10.0008153475        1.6141480013        4.2934693340
 H       -12.6888254519        2.3821236967        2.3178335360
 H       -11.3494488399        1.4102876597        1.7463759624
 H       -11.6287443358        3.0253439775        0.7667062766
 H       -12.3393741828       10.4822397092        4.8404497617
 H       -12.3545792963       11.0390726560        3.3588922032
 H       -11.1538029467        9.9578445669        3.6842700031
 H       -15.1819029299        9.0048709569        4.2302371361
 H       -13.8221476844        8.8511506882        5.2673759113
 H       -14.5299397892        7.4733143263        4.2255013023
 H       -14.4029277212       10.8827806897       -3.7174871907
 H       -13.5104139416        9.8016497779       -4.6375186179
 H       -12.7520776806       10.5369854071       -3.2864907631
 H       -15.3946443299       10.4456931989       -1.6826424544
 H       -15.9196957180        8.7788725324       -1.2244793906
 H       -16.3822738162        9.4913257865       -2.7397689601
 Na      -10.6058051548        6.6709272427        0.6316222075
