117

 C       -15.6211007034        6.6427699225       -2.7963336309
 C       -14.3677096107        7.3944570840       -2.8792732000
 O       -13.3323809009        6.8497029943       -3.1876142779
 C       -14.2248733188        9.0336673311       -2.6314515586
 C       -13.2515644140        9.2270328670       -1.4275320758
 O       -12.2056731474        8.5092273844       -1.3091386885
 C       -13.6009693071       10.1035526941       -0.2787945136
 C       -12.6443327204       10.2060215929        0.9728801387
 C       -13.3987063237        9.3275896583        2.0525601049
 O       -14.2920121104        8.5800402015        1.6886404211
 C       -12.9338217534        9.1008492540        3.4999923081
 C       -12.0416009366        7.9041143166        3.3256410094
 O       -10.9858903558        7.9845160321        2.7207932820
 C       -12.5448534764        6.5446155366        3.7981963985
 C       -11.3135913743        5.6848378227        3.7922035646
 C       -11.0975691192        4.9351904493        2.5148009811
 O       -11.3060304468        5.3309669685        1.3515184607
 C       -10.5935505874        3.4851956270        2.6770227484
 C        -9.1126519801        3.5922593017        2.2485751968
 O        -8.2724901552        3.5666718504        3.1081349341
 C        -8.8741794659        3.6852835065        0.6892109158
 C        -7.4754649937        4.4748859246        0.6204825338
 C        -7.6516893782        5.2728507297       -0.6821332302
 O        -8.3690448290        6.2438953328       -0.7431177440
 C        -6.8761727099        4.7081810052       -2.0192320493
 C        -7.3895377329        3.4202324912       -2.5454576323
 O        -8.4001358933        2.8728671693       -2.2353575371
 C        -6.6496110133        2.6518883978       -3.6608980727
 C        -6.7221090065        1.0488116138       -3.5060783038
 C        -5.3666636401        0.4732904381       -2.8004889032
 O        -4.3064013576        0.8752567091       -3.2355649537
 C        -5.6806582485       -0.5315943437       -1.5000705983
 C        -7.0840141328       -1.2299776593       -1.5146900649
 O        -7.8134471061       -0.8439261773       -0.5554094380
 C        -7.3254832940       -2.4013988863       -2.4611944556
 C        -7.3928548670       -3.7641912925       -1.7956287115
 C        -8.8471298246       -4.2324766797       -1.5475340521
 O        -9.6510874100       -4.0689115889       -2.4154457344
 C        -9.2433914076       -5.1237444544       -0.2658281119
 C        -8.1896130624       -6.1745941323       -0.2728558727
 O        -7.3079797067       -6.2155316623        0.5789245097
 C        -8.0880825092       -6.9884489014       -1.6085368829
 C        -8.8898151870       -4.2021618891        0.8866901260
 C       -10.6470525123       -5.6225495266       -0.3723576094
 C        -4.5806952450       -1.5248244846       -1.3595316235
 C        -5.7196234506        0.4236904112       -0.3648938368
 C        -7.0156788188        5.6502487737       -3.1301597556
 C        -5.2891502684        4.5395134090       -1.7578025542
 C       -10.5708322171        2.8640777443        4.0894261554
 C       -11.3264229033        2.3930087884        1.8346756263
 C       -12.0269957238       10.2299951180        4.1037398386
 C       -14.3327341396        8.6967465215        4.4173031734
 C       -13.7247054662        9.8143406094       -3.8935124012
 C       -15.5628664647        9.6651008122       -2.2738300924
 H       -15.3988455127        6.0462681933       -3.7611337614
 H       -16.5322674402        7.3172949884       -2.8032294706
 H       -15.6567357612        6.0354161516       -1.9068444016
 H       -14.6704938560        9.8639609832        0.0833346767
 H       -13.7663262989       11.0683237420       -0.6960203499
 H       -12.6989081210       11.2165680059        1.2906237000
 H       -11.5821253856        9.8164353651        0.8715025101
 H       -13.5064872082        6.2751665476        3.3244902021
 H       -12.7078663762        6.7152857377        4.8062796602
 H       -11.3400147077        4.9566205383        4.6140578330
 H       -10.3520073718        6.2382376825        3.9686515955
 H        -9.5997408805        4.2613769018        0.1461932243
 H        -8.7050611402        2.6536387183        0.2786418542
 H        -6.6006914755        3.8273429709        0.6059925235
 H        -7.3761329146        5.2150315864        1.4914404611
 H        -5.5732205108        3.0687350269       -3.7158748245
 H        -7.1780625872        2.9610832259       -4.5852413450
 H        -6.8900411521        0.7063155718       -4.5713625248
 H        -7.5514898977        0.9054238191       -2.7747921077
 H        -6.7701423610       -2.4226526382       -3.4259627506
 H        -8.3361818152       -2.3055356184       -2.8671063243
 H        -6.8236154656       -3.8018859991       -0.9497625867
 H        -6.9090809555       -4.4537287190       -2.4749291666
 H        -7.2896409145       -6.3422743420       -2.0292901706
 H        -8.9444591115       -7.1656049467       -2.2717730068
 H        -7.6123627710       -7.8511476931       -1.3455353578
 H        -9.5362601782       -3.2661496670        1.0157486466
 H        -7.8435324944       -3.8241322533        0.9732280051
 H        -9.0373145983       -4.7002257590        1.8234177342
 H       -11.3213082782       -4.8251915215       -0.0973602505
 H       -10.8363916249       -6.5302938234        0.2487727313
 H       -10.6199796014       -5.8244724869       -1.4459637703
 H        -4.5373061200       -2.1247537886       -2.2752904283
 H        -4.8639220989       -2.2200757607       -0.4768105455
 H        -3.6441615281       -1.1059746185       -1.2547968646
 H        -5.4656316290       -0.0432171898        0.6399038225
 H        -6.5179810079        1.0186867885       -0.2142116247
 H        -4.8718090628        1.0967726187       -0.5191329669
 H        -7.9421772332        5.9908945868       -3.4671748050
 H        -6.4518013863        5.3630093574       -4.0031151754
 H        -6.4435266262        6.5990568113       -3.0054421761
 H        -5.0187963218        5.5260791914       -1.2577962650
 H        -4.7854318436        4.3447432736       -2.7339308925
 H        -5.1537254243        3.5802087922       -1.2817195150
 H       -11.5534342617        2.9374086981        4.5493930057
 H        -9.8309844457        3.3244943446        4.6952388832
 H       -10.1798941703        1.8850361160        3.7652347606
 H       -12.4106324964        2.3188229291        2.0837155244
 H       -10.8185146581        1.3161907665        1.9271109155
 H       -11.1421520001        2.7826014311        0.8466542023
 H       -12.1739301439       10.1394504287        5.2006866183
 H       -12.2224668920       11.1834343929        3.7699257108
 H       -10.9628821946       10.1820957760        4.1207783411
 H       -14.7602964058        9.5227641428        4.7813143601
 H       -13.8970194749        8.1101754875        5.2411479572
 H       -15.0411306772        8.1453416621        3.6566232801
 H       -12.9435248345       10.5274022511       -3.6630686474
 H       -14.5016118779       10.2472803187       -4.4714261594
 H       -13.2051648386        9.1154688023       -4.6336295986
 H       -15.4322278126       10.7288962982       -2.1243577874
 H       -15.8118851544        9.2156344684       -1.2939733889
 H       -16.3624764067        9.5749493405       -3.0044710218
 Na      -10.7912133371        7.2179726472        0.0361842568
