117

 C       -15.3798470436        6.5458880563       -1.7968162768
 C       -14.0972746448        7.3130890719       -2.3442620130
 O       -13.1865026994        6.6285262278       -2.6239784674
 C       -13.9249649869        8.8599871436       -2.4451027051
 C       -13.2129925704        9.3105026746       -1.0195823911
 O       -12.3510204733        8.6099295058       -0.4455065161
 C       -13.6338409084       10.6696446999       -0.4781122773
 C       -13.0843254706       10.9554106683        0.9199467569
 C       -13.6553763729        9.7344137778        1.8880227324
 O       -14.5363088099        9.0124937676        1.3932959676
 C       -12.7931590645        9.4987992596        3.1472922246
 C       -12.0111519726        8.2243918531        2.7784967814
 O       -11.0763394140        8.3213545550        2.0297243737
 C       -12.6433163728        6.7632153933        3.0253330799
 C       -11.7624437537        5.5976994722        3.6147825199
 C       -11.2002269492        4.6683554788        2.4030444922
 O       -11.3502495499        5.1859652749        1.2800513791
 C       -10.4196756450        3.2775292291        2.5976316638
 C        -8.9863137689        3.6864302775        2.0838341114
 O        -8.2023685032        4.1519548196        2.8391907634
 C        -8.7665660522        3.7289376300        0.5720443515
 C        -7.6823740008        4.7376075262        0.1715728906
 C        -7.7908230585        5.2992201054       -1.3140324933
 O        -8.7247578560        6.0826299130       -1.5217467649
 C        -6.8654544164        4.8047628018       -2.4671083998
 C        -7.1592789688        3.2542093744       -2.6101536466
 O        -8.0715947587        2.7085105509       -1.9875433718
 C        -6.4171770916        2.2434951402       -3.6209065921
 C        -6.6202142708        0.8598627594       -3.2167360864
 C        -5.4482380221        0.1731623432       -2.4499393426
 O        -4.3517606181        0.3682286965       -2.8484087103
 C        -5.7918436890       -0.5777216830       -1.1008142833
 C        -7.2590144211       -1.1439055251       -1.0137427085
 O        -8.1270674066       -0.5056892840       -0.3206402250
 C        -7.5341515757       -2.2884037861       -2.0652997846
 C        -7.4546033819       -3.6911082746       -1.5484472291
 C        -8.9583962151       -4.3158810096       -1.4382550625
 O        -9.8075439521       -3.9181924576       -2.2386271535
 C        -9.2657079057       -5.2318947196       -0.2770554534
 C        -8.3811576140       -6.5250792336       -0.2119797509
 O        -7.6598830664       -6.6574965446        0.7199179457
 C        -8.4623424435       -7.5254360819       -1.3130375711
 C        -9.0476163771       -4.3208253140        0.9579826005
 C       -10.7572450751       -5.8010723635       -0.3932372914
 C        -4.9062223878       -1.8339486994       -0.7341584326
 C        -5.5487726752        0.4529568725        0.1494071690
 C        -7.1590548300        5.3301692910       -3.8056900083
 C        -5.2335431020        5.0175400728       -2.1666166566
 C       -10.3090528003        2.5144410442        3.9883674338
 C       -11.0814119431        2.2245072045        1.5100945674
 C       -11.9053069678       10.7164319537        3.4806143504
 C       -13.7791543950        9.2442718854        4.3826475893
 C       -12.8416204584        9.2281947144       -3.5477838936
 C       -15.2676813116        9.6697125821       -2.6309443780
 H       -16.2181032380        7.3303828100       -1.7945334931
 H       -15.0345639534        6.0884025055       -0.8478358823
 H       -15.6019059147        5.7600185231       -2.4234061017
 H       -14.7737821248       10.6617394290       -0.3448470371
 H       -13.3109178340       11.4582118907       -1.1565597189
 H       -13.5050236963       11.8145461085        1.2940492927
 H       -12.0229062612       11.0366010503        0.7843787371
 H       -13.0069404083        6.5032001366        1.9940088503
 H       -13.4153024549        7.0047206662        3.7087904666
 H       -12.1838183372        4.9454983727        4.4388541473
 H       -10.8908970661        6.0349157199        4.1765243124
 H        -9.7034514626        3.8982380232        0.0113398296
 H        -8.3904653258        2.6689701698        0.2556828388
 H        -6.7167305278        4.3477278282        0.3646091443
 H        -7.8644922372        5.6734351682        0.7448993155
 H        -5.2775014014        2.5161178639       -3.6055443702
 H        -6.7769162614        2.6563107918       -4.6085673576
 H        -6.7021697120        0.2809945809       -4.2238302551
 H        -7.7366414618        0.7698993806       -2.8065590944
 H        -6.9244085749       -2.1302465795       -3.0090755001
 H        -8.5780047059       -2.2101327015       -2.2065418327
 H        -6.8322892456       -3.7311400245       -0.7367117395
 H        -6.9565241545       -4.4220016297       -2.2057726801
 H        -9.1869251916       -7.1525211712       -1.9993614135
 H        -8.6420186813       -8.5172627718       -1.0815437680
 H        -7.4243588149       -7.3764991320       -1.6320861349
 H        -9.8218873944       -4.0325878725        1.6885048772
 H        -8.6353146169       -3.3603025985        0.7048533953
 H        -8.3317932333       -4.8109004143        1.6044917703
 H       -11.3537582484       -4.9397017658       -0.6587622560
 H       -11.0476270310       -6.0336952294        0.6751613407
 H       -10.8530475928       -6.6229628856       -1.0478470457
 H        -4.9832432830       -2.6267714975       -1.4943691087
 H        -5.4235058611       -2.2623694846        0.1675223047
 H        -3.9219626003       -1.5935385441       -0.5611183095
 H        -6.3627018206        1.1874210311        0.4464354929
 H        -4.7836862339        1.1580284821        0.0343601675
 H        -5.2881917232       -0.1457499642        1.0322321197
 H        -8.0097404659        5.0104064744       -4.2360163730
 H        -6.4784289069        4.9802879652       -4.5287138593
 H        -7.1398188239        6.4121522050       -3.9680673096
 H        -4.9925770980        6.0641968809       -2.1255822136
 H        -4.6997339987        4.6694128833       -3.0431019590
 H        -5.1834513133        4.3729253919       -1.3594863922
 H       -11.1026877137        2.9710947935        4.5402572983
 H        -9.3338625044        2.4929502290        4.4102699189
 H       -10.7018244418        1.5155061751        3.7445484550
 H       -11.9474649195        1.7217203861        2.0038848170
 H       -10.2763673686        1.4386077578        1.2688669358
 H       -11.5379317763        2.6190293032        0.5390641781
 H       -11.0711596547       10.4428377423        4.1949374796
 H       -12.6020242809       11.3446650284        4.0191838755
 H       -11.4248404511       11.2808830310        2.7516151421
 H       -14.0656099496       10.2226867811        4.6339222645
 H       -13.3686493734        8.5809907971        5.1041031709
 H       -14.5200014601        8.6129339054        3.8673364527
 H       -12.3362264156        8.3956212613       -3.9633704772
 H       -12.1758577854       10.0376185085       -3.2517364588
 H       -13.4406332570        9.6586373826       -4.3597424640
 H       -15.0890226928       10.7166957641       -2.5171898203
 H       -16.0345330508        9.3729349071       -1.9287948540
 H       -15.5828911534        9.4572653129       -3.6424292524
 Na      -10.4069788115        7.0715588009        0.0203887194
