117

 C       -15.0846407005        6.9329715384       -1.2464102658
 C       -13.8145223118        7.1453290729       -2.0090179794
 O       -12.9547980196        6.2701695886       -2.3102317996
 C       -13.6587418505        8.6735793369       -2.4105662137
 C       -13.1761587648        9.3417986872       -0.9764758192
 O       -12.4511660558        8.7493464522       -0.2300412712
 C       -13.6856850012       10.7424156844       -0.6317765737
 C       -13.2476747649       11.2160065101        0.8459974115
 C       -13.6688134532       10.0662489114        1.6681244806
 O       -14.7455282780        9.5003606294        1.7446275644
 C       -12.6528737593        9.4590228415        2.8945472809
 C       -12.0044626971        8.1390544544        2.5252989936
 O       -10.9237371404        8.3154636231        1.9477890399
 C       -12.6843764092        6.7997507338        2.7955001839
 C       -11.7825658066        5.6684415940        3.2330341077
 C       -11.2302094701        4.8030292717        2.1093561217
 O       -11.3395993255        5.0730978809        0.9249167618
 C       -10.3521218179        3.3668562795        2.4166884696
 C        -9.0339016524        3.9361357351        1.9591019976
 O        -8.2147983345        4.2344194025        2.7763121373
 C        -8.6848823818        3.9424543169        0.4628419672
 C        -7.5853931843        4.9496506830       -0.1909786303
 C        -7.9608798136        5.2509690176       -1.5764581844
 O        -8.9865869130        5.8411092898       -1.8242326114
 C        -7.0148021613        4.7860561996       -2.6553472104
 C        -7.1850516129        3.1558791762       -2.6056901285
 O        -7.8866512491        2.7074119977       -1.7624002255
 C        -6.1499318302        2.1545976451       -3.4149380041
 C        -6.5859359930        0.5667653099       -2.9951593031
 C        -5.4930312077       -0.0055138180       -2.1583374570
 O        -4.2933383366        0.1095960786       -2.4275225970
 C        -5.7280617474       -0.6479050404       -0.7901255198
 C        -7.2911389154       -1.1070580669       -0.7932433193
 O        -8.1657075437       -0.4490029842       -0.3877675340
 C        -7.7801794516       -2.2027154908       -1.8065700772
 C        -7.6606213737       -3.7385322073       -1.4839497605
 C        -9.1116827167       -4.2945957202       -1.3851826160
 O       -10.0037805905       -4.1257702778       -2.1630355471
 C        -9.4578714648       -5.2961211983       -0.2080848390
 C        -8.5041845980       -6.6328590081       -0.1315115682
 O        -7.6569498681       -6.7757646662        0.7622185595
 C        -8.4800806504       -7.6439401434       -1.3576778720
 C        -9.2383996185       -4.5088158414        1.0113147639
 C       -11.0150482646       -5.6780576926       -0.2274216221
 C        -4.6754320611       -1.6781175890       -0.5937408914
 C        -5.7204767320        0.5393075757        0.2215969608
 C        -7.4927510557        5.3475176144       -4.0457527905
 C        -5.5599770014        5.2878149392       -2.2533521251
 C       -10.3991918189        2.9635101323        3.9370711346
 C       -10.9159266614        2.3115933712        1.4577474457
 C       -11.5275087867       10.5854168149        3.2263192877
 C       -13.5904427929        9.3736073587        4.1386857614
 C       -12.4041560593        8.9095741318       -3.3236023044
 C       -14.9769361071        9.2413293085       -2.9276498235
 H       -14.9681355470        7.3642302985       -0.2677398301
 H       -15.2853842740        5.8618256989       -1.3603093212
 H       -15.9250394087        7.5019038939       -1.7942694892
 H       -14.7575365555       10.6284783127       -0.5425192610
 H       -13.4394331118       11.4965741684       -1.4034117996
 H       -13.7634933115       12.2205589891        1.1667696391
 H       -12.1223654871       11.2570035626        1.0079012612
 H       -12.9803069465        6.4588604881        1.8222429843
 H       -13.4503241066        7.0548095181        3.5226845875
 H       -12.3073724862        4.9467654720        3.8220587176
 H       -11.0162290790        5.8445152568        3.9508866393
 H        -9.5944541754        4.0163273218       -0.1237043736
 H        -8.4355561265        2.9439805254        0.3874358940
 H        -6.5182333579        4.5455779972       -0.1913977697
 H        -7.6384334336        5.8835953802        0.3907264049
 H        -5.2464041146        2.5317914281       -3.1055756718
 H        -6.1690831893        2.3714731822       -4.4553130446
 H        -6.9648494869        0.1519886744       -3.8687686836
 H        -7.4018473330        0.5806547020       -2.4096759630
 H        -7.0564369079       -2.1153746677       -2.5570326112
 H        -8.8875351731       -2.0508109124       -2.0710075617
 H        -7.1425610634       -3.9326422191       -0.4808398836
 H        -7.0797913211       -4.2968142397       -2.1896857822
 H        -9.4534740811       -7.6192995414       -1.8707347476
 H        -8.6066734145       -8.6502919944       -0.8076655234
 H        -7.5566607174       -7.6006799665       -1.8660414370
 H        -9.8106472053       -4.8831102749        1.8890042779
 H        -9.5139607263       -3.4095703419        0.9293931466
 H        -8.2717268892       -4.5109492403        1.5625887920
 H       -11.6562987785       -4.7915715997       -0.3942075729
 H       -11.2254676956       -6.1775873698        0.6719309866
 H       -11.0467602491       -6.4598528228       -1.0611725248
 H        -4.8277081390       -2.2551577964       -1.4890117286
 H        -4.9731964702       -2.3496646425        0.2033181023
 H        -3.6084777905       -1.3179875153       -0.4879810301
 H        -5.6256786141        1.4724820600       -0.2513153197
 H        -4.8819726582        0.5971743552        0.9203137217
 H        -6.5970564549        0.5066748753        0.8438243762
 H        -8.5105208865        4.9048955170       -4.3589072204
 H        -7.0181611163        4.9973443639       -5.0143540100
 H        -7.6224742580        6.4174738891       -4.1365881795
 H        -5.6825390803        6.3177843037       -1.8731572912
 H        -5.0894841440        5.4653558668       -3.2205295105
 H        -5.2295665963        4.5001182337       -1.5153407204
 H       -10.8452361900        3.7350581625        4.5891050829
 H        -9.3094644970        2.8130831098        4.0056339721
 H       -10.9359385386        2.0319247415        4.1436392346
 H       -11.6629206129        1.6922035903        1.9580937020
 H       -10.1802133678        1.6632187819        0.9653077975
 H       -11.4676430585        2.7855241856        0.7417714022
 H       -11.2558225340       10.6194285508        4.2807845591
 H       -11.7979718680       11.6243973983        3.0185621193
 H       -10.6480818463       10.2655711191        2.5403110260
 H       -13.5945468689       10.3995129565        4.3182518893
 H       -13.0586989169        8.6952836216        4.8211612140
 H       -14.5091829936        8.7746176191        3.9630959402
 H       -12.4528266194        8.0633393822       -4.0663685589
 H       -11.4321875745        8.8502285306       -2.7518911090
 H       -12.5401864727        9.8262039100       -3.9673908349
 H       -14.7199395790       10.2059791221       -3.3898571937
 H       -15.7138922704        9.4418140339       -2.1411773439
 H       -15.3480947407        8.5149794708       -3.6373957508
 Na      -10.4560199174        6.8935096595        0.0035903402
