117

 C        -8.9229144143       -5.3911723368        5.2350142692
 C        -7.7027155692       -4.4146240120        4.9746367281
 O        -7.7325705188       -3.8863093939        3.8988568613
 C        -6.6106820464       -4.1675869248        6.0337425542
 C        -6.3518598663       -2.6443158998        6.2309853440
 O        -5.6629762730       -2.2526016581        7.1090378456
 C        -7.1535346287       -1.7517948268        5.1979268756
 C        -6.6251774024       -0.3592994865        5.1011500016
 C        -7.6087172222        0.8081004498        4.8928335392
 O        -8.7128648805        0.4894089328        4.4847894951
 C        -7.1279268140        2.3639890202        5.0498320984
 C        -6.7562434919        2.6839973339        3.5637278246
 O        -5.6934946888        2.3039377172        3.2286548918
 C        -7.8893152834        3.1406012459        2.6193603597
 C        -7.6640521854        2.8581355794        1.1277961199
 C        -8.9455623096        3.3329038584        0.4069595769
 O        -8.9758942783        4.4563267782       -0.0295733900
 C       -10.1844941716        2.2810567690        0.1991251345
 C       -11.6303118456        2.8136422552        0.8843330043
 O       -11.6410744175        3.4215904561        1.9338215832
 C       -13.0748171025        2.4836202435        0.2508400283
 C       -14.0678758327        3.6766773512        0.2025720792
 C       -13.4071762973        4.8592733883       -0.4195663529
 O       -12.2456135234        5.1941296355       -0.0871423379
 C       -14.1984111629        5.6707847965       -1.5160387700
 C       -13.5947000835        5.3421104684       -2.9802343049
 O       -12.5261086802        4.7141754951       -3.0177306066
 C       -14.4541826461        5.5651638740       -4.2071015784
 C       -13.6701089226        6.1951634292       -5.4346813648
 C       -13.3450674435        7.6568952766       -5.1982038563
 O       -13.5757494206        8.2357697937       -4.1771450968
 C       -12.4759750493        8.2865825654       -6.3279885412
 C       -11.1152313379        8.3934681345       -5.5715329251
 O       -10.2768449901        7.5174715879       -5.7794150683
 C       -10.7937095886        9.5213012283       -4.5608364352
 C        -9.2560146750        9.2651900219       -4.2095923396
 C        -9.0824020604        8.0357005197       -3.2935191404
 O       -10.0763022129        7.5765477164       -2.7568094541
 C        -7.6170715574        7.5640087734       -2.9463291127
 C        -7.6627370235        6.0009322077       -3.4518077795
 O        -8.2062329824        5.1646764457       -2.7752215340
 C        -7.1016292076        5.6518722020       -4.8326648312
 C        -6.3394474291        8.1844992391       -3.5442190310
 C        -7.3314407300        7.3730363993       -1.3951608488
 C       -12.4371590402        7.6756321430       -7.6907887673
 C       -13.0542055477        9.7828159801       -6.4150865828
 C       -15.7072297506        5.3627562199       -1.5383427501
 C       -13.8983442425        7.1426797738       -1.2745446316
 C       -10.2824660426        2.2026028810       -1.3525588095
 C        -9.8717459768        0.9307480171        0.8824719728
 C        -8.3668662750        3.0610658592        5.6177480065
 C        -5.8729112009        2.5597359371        5.9798866311
 C        -6.8573003522       -4.9618121696        7.3349403966
 C        -5.2622356409       -4.7994594429        5.4357757798
 H        -9.7387017196       -4.9678833357        4.6357613278
 H        -9.3756228633       -5.5194053365        6.2174807119
 H        -8.7039691068       -6.4345855610        4.8889294380
 H        -8.2233880882       -1.7772246361        5.5212176526
 H        -7.1159465908       -2.0867314471        4.1709880394
 H        -5.8083129458       -0.2111459323        4.4990622391
 H        -6.1643794868       -0.1193866718        6.0638579275
 H        -7.9325657060        4.1656256184        2.6284808632
 H        -8.8219362816        2.7249285326        3.0321187825
 H        -7.4420684896        1.8025017090        0.9194261419
 H        -6.8080857686        3.4844754281        0.8060181913
 H       -13.5306445389        1.7175709044        0.8636712541
 H       -13.1552637471        1.8101574775       -0.6363783572
 H       -14.3636089061        3.9085017110        1.2532002414
 H       -15.0533589412        3.2701088521       -0.2676914810
 H       -15.3341538916        6.0946545508       -3.8969645499
 H       -14.7987021805        4.5871519985       -4.4700503390
 H       -14.2900487363        5.9370701294       -6.2562771470
 H       -12.8709301674        5.6076154981       -5.6510842024
 H       -11.3388745272        9.3054807804       -3.6768922700
 H       -11.0515378883       10.5685440213       -4.8662092393
 H        -8.8124252042       10.1070453806       -3.7380136411
 H        -8.6677161990        9.1153614328       -5.1600764616
 H        -7.3478615121        6.4020433237       -5.5352007674
 H        -7.5103308059        4.7419613244       -5.2849398515
 H        -5.9930436548        5.5948247490       -4.6582572730
 H        -6.2186284029        9.1863934305       -3.1192336486
 H        -6.4155304186        8.2471300535       -4.6405720220
 H        -5.4243894431        7.6715528557       -3.2996911024
 H        -8.3012540736        7.0622266980       -0.9377486148
 H        -7.0510751054        8.2899046313       -0.8967578785
 H        -6.4935770972        6.6633029959       -1.2096679744
 H       -12.0944355883        6.5940309554       -7.5950142150
 H       -11.7331993757        8.1764294271       -8.3978067064
 H       -13.4298093104        7.6084786035       -8.0828774008
 H       -12.5368341150       10.4494663188       -7.0799676620
 H       -13.2748000558       10.2173182737       -5.3826505025
 H       -13.9694818585        9.4766944805       -6.9991234443
 H       -16.0151000105        5.3123441502       -0.4959196847
 H       -15.9959279851        4.3763420111       -2.0015513467
 H       -16.3139281665        6.0331254817       -2.0535772533
 H       -14.2925701987        7.4939017601       -0.2991048067
 H       -14.5217717376        7.7249031196       -2.0418240491
 H       -12.7673785656        7.4209000574       -1.3738322709
 H       -11.1607007910        1.6055841017       -1.7012031632
 H        -9.4532565953        1.7412845073       -1.7250079286
 H       -10.3896493915        3.1570301304       -1.7575050091
 H        -9.9266664825        1.0315104543        1.9254913318
 H        -9.0019786297        0.5830047987        0.4519321234
 H       -10.6275261698        0.2308154661        0.4661427219
 H        -8.5373368891        2.7917819042        6.6670942451
 H        -9.2357464302        2.7571765145        5.0808944359
 H        -8.2240061969        4.1993440490        5.6470797730
 H        -6.0339378007        1.8712304062        6.8499679876
 H        -5.9353781430        3.5864995882        6.3164055537
 H        -4.8888592078        2.5102814131        5.4123060862
 H        -7.6913078369       -4.5493027194        7.8371834338
 H        -5.9753855670       -4.7319969269        7.9651964080
 H        -6.9435178265       -6.0130819534        7.1601422037
 H        -4.9165015383       -4.1864936964        4.5419963296
 H        -5.4200836793       -5.8620013918        5.1842570014
 H        -4.4074136903       -4.8151890683        6.1541001482
 Na      -10.2886998465        5.4966634027       -1.6394508874
