117

 C       -14.8041027399        6.7885895608       -0.6707645318
 C       -13.6172037380        7.0726528465       -1.6357644709
 O       -12.8322756199        6.2352865412       -1.9563087396
 C       -13.3597198969        8.5011089659       -2.3341557910
 C       -13.0937641986        9.4184256216       -1.1037416338
 O       -12.3507503044        8.8710113111       -0.2500948585
 C       -13.6889156935       10.7697950247       -0.7920935613
 C       -13.1158527823       11.2662173269        0.5898906091
 C       -13.6417200309       10.1106644773        1.8239093317
 O       -14.8130358782        9.8787948540        2.0186581769
 C       -12.4375427657        9.4910634937        2.8254806274
 C       -11.9197322776        8.1815580587        2.3136760878
 O       -10.7767961976        7.9804326798        1.8991835532
 C       -12.8308413086        6.8824195699        2.3674360150
 C       -11.8727244187        5.8522195803        2.9632827452
 C       -11.3333032041        4.8422620575        1.8111105737
 O       -11.6299473766        4.9796765188        0.6240653902
 C       -10.3913600230        3.6478716292        2.3077380635
 C        -8.9472654596        4.1439776476        1.9427954259
 O        -8.0442647813        4.4943438995        2.7316526174
 C        -8.6060034137        4.0351229259        0.4302448283
 C        -7.7859673643        5.1220775000       -0.1324089566
 C        -8.1089146388        5.2608932219       -1.6327329858
 O        -9.1516116206        5.8975855912       -1.8586056148
 C        -7.1976974109        4.7438684113       -2.6667697739
 C        -7.1735858518        3.1445101141       -2.5415475883
 O        -8.0334069385        2.5844894871       -1.9051769087
 C        -6.0532079103        2.2698603666       -3.3408925349
 C        -6.2531965424        0.8177076843       -3.0313862621
 C        -5.2983315137        0.0350742402       -2.0442602385
 O        -4.1626722546       -0.0118100089       -2.3701421023
 C        -5.8630060256       -0.5902354874       -0.7076499322
 C        -7.3867676363       -1.1535526346       -0.8508453156
 O        -8.2945503659       -0.6755243119       -0.1311768304
 C        -7.7165857479       -2.2303634144       -1.8734540971
 C        -7.8694434486       -3.5900626669       -1.2102613223
 C        -9.2324763001       -4.3139316795       -1.2214663289
 O        -9.9379099479       -4.3158657077       -2.2219666078
 C        -9.6791877506       -5.2726955447       -0.0545788474
 C        -8.5116938782       -6.5117592147       -0.1110238204
 O        -7.7123434862       -6.7490178551        0.7509018151
 C        -8.8017342829       -7.5346617994       -1.2911527631
 C        -9.4355653323       -4.7390867529        1.4047192029
 C       -11.0743924901       -5.8631397152       -0.1991391350
 C        -4.9891676301       -1.8491672705       -0.1890634240
 C        -5.7662698272        0.4188987961        0.4603407554
 C        -7.7629849883        5.0303765993       -4.0882068796
 C        -5.7696912601        5.3819697648       -2.6384444141
 C       -10.4673423913        3.4402666714        3.8581128575
 C       -10.8186559825        2.4516731598        1.5565772649
 C       -11.3133115696       10.4780156692        3.0253045487
 C       -13.2231669933        9.4209392667        4.2584385284
 C       -12.0723330234        8.4090407552       -3.1507348748
 C       -14.4384101949        8.9601666596       -3.3923115186
 H       -14.3709450285        6.0426454899       -0.0177920882
 H       -15.5491877384        6.3277161836       -1.2536155120
 H       -15.0751166077        7.7107688983       -0.1395477787
 H       -14.7905720447       10.7711600331       -0.6247795747
 H       -13.3888918790       11.5823044633       -1.4910529161
 H       -13.4568275424       12.2408477014        0.6721709507
 H       -12.0488878434       11.3073486601        0.5347086543
 H       -13.0265721074        6.5814501059        1.3097501215
 H       -13.6672744262        6.9896388164        3.0663311157
 H       -12.2945081212        5.2913318830        3.8406738327
 H       -11.0112551298        6.2812967344        3.5164106908
 H        -9.5420177214        3.8721450466       -0.1429481951
 H        -8.0193529439        3.0406198373        0.2786536705
 H        -6.7893502343        4.8845080395        0.0913893683
 H        -7.9875256523        6.0642317941        0.3912494830
 H        -5.0511083976        2.7000236746       -2.9892718002
 H        -6.0662665883        2.5117219940       -4.4366873152
 H        -6.3994941603        0.3827276892       -4.0907256436
 H        -7.4078077175        0.6665230210       -2.7391229239
 H        -6.8787045164       -2.3173006165       -2.6344386290
 H        -8.7045438631       -2.1174775811       -2.1819775931
 H        -7.5315354228       -3.6066554416       -0.1872797287
 H        -7.1727823028       -4.3324332320       -1.7572660951
 H        -9.7539907965       -7.3470069148       -1.7287712747
 H        -8.7868224749       -8.5446978670       -1.0541765112
 H        -7.9425999984       -7.1954886386       -1.9691400335
 H        -9.1446337746       -5.5871895334        2.0228916344
 H       -10.0943523774       -4.1846518725        2.0056747082
 H        -8.4872562272       -4.1339441392        1.5103200621
 H       -11.8096871461       -5.2020081947        0.2618201098
 H       -10.9266473115       -6.8232135183        0.3469756564
 H       -11.3488894063       -6.0121419556       -1.1972480995
 H        -5.1748729184       -2.7963648553       -0.7156193958
 H        -5.1324446100       -1.9706335527        0.8624614921
 H        -3.9594086759       -1.5034714627       -0.2454083593
 H        -4.9101239052        1.1507181724        0.4985332659
 H        -5.8102481345       -0.1854899196        1.4432474981
 H        -6.7116208580        0.9870381350        0.5480746788
 H        -8.7303265023        4.7662949571       -4.4188118153
 H        -7.2256797982        4.5211599728       -4.8268832550
 H        -7.6977249515        6.0931598424       -4.3148272666
 H        -5.9024124912        6.4503928729       -2.5862525917
 H        -5.4086140857        5.1170770829       -3.6152549529
 H        -5.2942079020        5.0144533264       -1.7721726796
 H       -10.2744027532        4.3983412165        4.3461871553
 H        -9.8439991996        2.6283168467        4.1846074449
 H       -11.5260574614        3.3297054019        4.0515378413
 H       -11.8701305577        2.1552981646        1.6141756336
 H       -10.2573145384        1.6295890731        1.8952108965
 H       -10.6479919210        2.4577874046        0.3944198441
 H       -10.8718763164       10.2400670356        4.0078300835
 H       -11.7382243682       11.4861377363        3.2976389110
 H       -10.6054193163       10.5500215401        2.2097683226
 H       -13.7110385301       10.5198451934        4.4134877017
 H       -12.4330596757        9.1180360062        4.9140537596
 H       -13.8381282413        8.5930320798        4.2417749935
 H       -12.2060361743        8.1926855735       -4.2134850517
 H       -11.4740012829        7.5987158789       -2.6916786558
 H       -11.5589813195        9.3619486388       -3.0928323637
 H       -14.0566537156        9.8211617228       -3.9293446640
 H       -15.3614405353        9.1925773761       -2.8799232447
 H       -14.5764959203        8.0770455428       -4.0269449869
 Na      -10.7943892365        6.8878746973       -0.4294702170
