117

 C       -15.0462120831        6.9649055454       -1.0540272080
 C       -13.5497116163        6.8479132993       -1.6341797382
 O       -12.9644229544        5.8298676296       -1.6375246336
 C       -12.9624412075        8.2421150974       -2.2856561500
 C       -12.6023052294        9.2092672618       -1.1736703552
 O       -11.5071157972        9.1117202214       -0.5829174863
 C       -13.6596389511       10.1396024209       -0.6581876133
 C       -13.1803874854       11.0468725190        0.4530994787
 C       -13.2794763027       10.2873637962        1.7519164815
 O       -14.4212907392        9.9735716575        2.1120841082
 C       -12.1085722424        9.7640086121        2.5721147198
 C       -11.6901710277        8.2910225134        2.0039877822
 O       -10.5640049742        8.1326277057        1.4794603884
 C       -12.7364719186        7.2101564514        2.0649744966
 C       -12.3613963188        5.8478506882        2.6876506208
 C       -11.4967226346        4.8409359556        1.8658475580
 O       -11.5743408434        4.9432496426        0.6917108244
 C       -10.5371287039        3.7977172525        2.5236930128
 C        -9.0645120648        4.3734068176        1.9411001210
 O        -8.2870726300        5.0486544964        2.6113823365
 C        -8.7234127216        4.1197640674        0.4391679878
 C        -7.9354743567        5.2898137309       -0.1884501244
 C        -8.2652227386        5.5005766025       -1.6452158675
 O        -9.1706231745        6.2119254773       -2.1105379236
 C        -7.4635528199        4.6285861508       -2.8135597872
 C        -7.2837228636        3.0456377808       -2.4682300412
 O        -8.3126749707        2.4513809647       -2.1781999822
 C        -5.9833189274        2.3488804073       -2.6206723649
 C        -6.2272669860        0.8039539406       -2.9472372800
 C        -5.3567147963       -0.1022474148       -1.9181105723
 O        -4.1665761487       -0.0915914558       -1.8286548029
 C        -6.0318092876       -0.7105277164       -0.6488014577
 C        -7.5010754773       -1.2798011690       -0.7146469722
 O        -8.4704772355       -0.7502863104       -0.0526181920
 C        -7.7841802221       -2.5115309649       -1.5756810162
 C        -7.9850357502       -3.6210692733       -0.5488301295
 C        -9.3235903942       -4.3352348745       -0.8415904983
 O        -9.7957497773       -4.2294668295       -1.9552540158
 C        -9.7651170201       -5.4495151595        0.1462090877
 C        -8.7342906140       -6.5010590977       -0.1004661173
 O        -7.7414234125       -6.5886173498        0.5443979444
 C        -8.9401048320       -7.3431407246       -1.3486958594
 C        -9.6885965875       -4.9173735174        1.5491089817
 C       -11.2273287207       -5.7973188122       -0.1915259777
 C        -5.0960669504       -1.7927659402       -0.1670908286
 C        -6.0668988103        0.5664760983        0.3337908323
 C        -8.1910598090        4.6660854132       -4.0977600028
 C        -6.0934287959        5.4133586158       -3.1925561034
 C       -10.3580112891        3.6539444968        3.9967912171
 C       -10.7550609036        2.4486037209        1.9689108296
 C       -10.8530591535       10.6537669973        2.6402132452
 C       -12.6470261413        9.4863188302        4.0889073032
 C       -11.7388218750        8.0748027181       -3.1743789508
 C       -14.1034648526        8.6941338744       -3.2877044360
 H       -15.6065901816        6.1132055181       -1.5066555947
 H       -15.5356685900        7.8220067429       -1.4356988121
 H       -15.0263050093        7.0191168699        0.0082765097
 H       -14.6010619482        9.6051052563       -0.2459725490
 H       -13.7768021758       10.7741928803       -1.4712532368
 H       -13.7302644614       11.9972275572        0.6310627280
 H       -12.1721504370       11.4241380511        0.0269726243
 H       -12.9928434603        7.1542793592        0.9621331548
 H       -13.5443659506        7.5624061424        2.6127667022
 H       -13.3105205462        5.3637486733        2.7173139320
 H       -12.1215267392        5.8900494258        3.7317808256
 H        -9.5874455424        3.8521255480       -0.1252976731
 H        -8.2183580943        3.1788477567        0.4348732145
 H        -6.8761745652        5.3475625227        0.0734646993
 H        -8.3192579105        6.2181963530        0.3264706607
 H        -5.5819928815        2.2195844911       -1.6434920116
 H        -5.3143921975        2.9351984983       -3.0928537071
 H        -5.8721049460        0.4242332486       -3.8580677018
 H        -7.2481249361        0.5898502261       -3.1770035427
 H        -7.0052788354       -2.9430223684       -2.2139062908
 H        -8.7534683787       -2.2870986003       -2.0798630884
 H        -7.8214488091       -3.2772134404        0.4804008644
 H        -7.1746751173       -4.4128197928       -0.8380873483
 H        -9.9704931853       -7.3135607482       -1.7636036228
 H        -8.8587064265       -8.3504254510       -0.9944421704
 H        -8.2162317452       -6.9989477819       -2.1549639773
 H       -10.3809139874       -5.2992732937        2.3547276117
 H        -9.9191400893       -3.8153027342        1.5987707700
 H        -8.6214908926       -4.8613799232        1.8605816576
 H       -11.8383012769       -5.1178248636        0.3771239864
 H       -11.5404471478       -6.8775067654       -0.0154638789
 H       -11.4012409328       -5.4066027834       -1.1818060922
 H        -4.5732126951       -2.3402910665       -0.9893409715
 H        -5.5256709533       -2.5460022343        0.5521545805
 H        -4.3842698261       -1.2840644984        0.4117140297
 H        -6.0465699021        0.1492434924        1.3351688429
 H        -7.0587796821        0.8450566913        0.2170811100
 H        -5.3863457195        1.3716032104        0.3539171263
 H        -9.1360073291        4.2193971087       -4.3304749652
 H        -7.5883194469        4.2096471086       -4.9215834529
 H        -8.4764366079        5.7462965929       -4.4277937586
 H        -6.4183958714        6.4169889844       -3.6059629704
 H        -5.6357360389        4.6913080326       -3.8797976257
 H        -5.6132834864        5.7469645195       -2.2961321079
 H        -9.3129534722        3.8325154346        4.2619111606
 H       -10.6523370925        2.6531422819        4.3649523577
 H       -10.9350788915        4.4662444325        4.5731113147
 H       -11.6054961390        2.0185229252        2.3347415577
 H       -10.0080174055        1.7304738164        2.0631040502
 H       -10.9136008311        2.5064373799        0.8602953748
 H        -9.9055920344       10.0307257176        2.7581852472
 H       -11.0200338105       11.0730554797        3.6511632681
 H       -10.9394601078       11.4257268449        1.9244567565
 H       -12.4411456694       10.5166364272        4.6212557030
 H       -12.2687155770        8.5478969158        4.5047442790
 H       -13.7010836271        9.5764751838        3.9128107429
 H       -12.0638887702        8.0723490305       -4.2410870651
 H       -11.2669780261        7.0668943096       -2.9941488658
 H       -11.1234333291        8.9991044139       -2.9749923746
 H       -13.8365830753        9.6537530200       -3.6685552801
 H       -15.0524636383        8.6981437333       -2.7540171954
 H       -14.1773553118        7.9695887391       -4.0978474561
 Na      -10.7690239852        6.7313525838       -0.5887431986
