117

 C       -15.2787714531        6.8142544623       -1.6207641676
 C       -13.7494408408        6.8599087951       -1.8476038161
 O       -12.9672202605        5.9680138909       -1.4662691950
 C       -13.0744497992        8.1431458993       -2.6357268402
 C       -12.5284762926        9.1363273874       -1.4978245273
 O       -11.3594406695        9.1988580587       -1.3003237960
 C       -13.5696443697       10.0558832124       -0.8035141379
 C       -13.0323707616       10.8759352962        0.4421632852
 C       -13.1073454451       10.2092855413        1.8689900499
 O       -14.1754459722        9.7963727541        2.2083445060
 C       -11.7881658974        9.6670148041        2.6316016056
 C       -11.5022667024        8.2955951422        2.0167155164
 O       -10.4584769085        7.8677521307        1.6474138822
 C       -12.6062572332        7.2675687350        1.9173425780
 C       -12.2839278070        6.0032039795        2.8100096453
 C       -11.5026221429        4.9640867957        2.0392405613
 O       -11.5243301510        5.0783532050        0.7921534608
 C       -10.5126840781        3.9910681111        2.5515862017
 C        -9.0701299639        4.6214037617        1.9078018012
 O        -8.4448629872        5.4033312425        2.4933831680
 C        -8.8069293468        4.1274040522        0.4999025302
 C        -7.9716778285        5.1127690485       -0.3684670825
 C        -8.3475111660        5.3194989778       -1.8979669578
 O        -9.0935574649        6.2208759644       -2.1608908786
 C        -7.6113730025        4.6104262804       -2.9972584912
 C        -7.4998132865        3.1417476639       -2.5168670129
 O        -8.4916185648        2.5575538957       -2.1355867125
 C        -6.0988837740        2.4319728228       -2.2408435542
 C        -6.2367113814        0.9746733329       -2.5961732146
 C        -5.3550044772        0.0561813241       -1.7024173843
 O        -4.1818820059       -0.1933254126       -1.9865119905
 C        -5.9849317534       -0.4700973430       -0.4109394238
 C        -7.4757293502       -1.1593618052       -0.6933690963
 O        -8.4167735296       -0.5773071425       -0.3544880007
 C        -7.5854735122       -2.4947357674       -1.3957135006
 C        -8.1052124070       -3.6354050259       -0.3589304431
 C        -9.4473279285       -4.2976023422       -0.6928012805
 O        -9.9516359778       -4.1446093115       -1.7491768541
 C        -9.9123231294       -5.5775001850        0.1920274101
 C        -8.9010420303       -6.6113078546       -0.1702522395
 O        -7.8572022487       -6.6566871208        0.4854029642
 C        -8.9852967927       -7.5182627333       -1.2938581896
 C        -9.8758191535       -5.2036250207        1.7042549005
 C       -11.4227573614       -5.8408037714       -0.1513399668
 C        -5.1056492041       -1.6675505695        0.2361899969
 C        -6.2685770581        0.5604082376        0.7859152270
 C        -8.5667283767        4.5277939737       -4.1944388591
 C        -6.3004394020        5.3018710940       -3.1718028278
 C       -10.4300995889        4.1063654635        4.1217465472
 C       -10.8687807433        2.5460741876        2.0023948529
 C       -10.5313558827       10.6070295873        2.2810473198
 C       -12.0863549711        9.5161454638        4.1101200587
 C       -11.8298197074        7.4175566528       -3.3506540894
 C       -13.9527235237        8.9711538791       -3.5457393304
 H       -15.7526356051        6.5840723414       -2.6212094962
 H       -15.7187024168        7.7332297719       -1.2416924305
 H       -15.3642248680        6.0976412870       -0.8431532524
 H       -14.2657947203        9.4915098461       -0.2781195059
 H       -14.0342336755       10.8175824859       -1.5321627790
 H       -13.6321167391       11.7592783966        0.5865856545
 H       -12.1077246560       11.2533122101        0.1877596161
 H       -12.7001346342        6.9504312733        0.8745875329
 H       -13.5888211294        7.7869926794        2.2359287899
 H       -13.2736909753        5.5463687397        3.1520122264
 H       -11.6287392274        6.1996844864        3.6964595945
 H        -9.8289598690        3.8440708770        0.0985605596
 H        -8.3807584627        3.0880457822        0.4325881086
 H        -7.0060275552        4.6198334516       -0.3417162920
 H        -7.7473092590        6.0463245298        0.0700365250
 H        -5.6722574220        2.8192804105       -1.2618458226
 H        -5.3397952342        2.7168554619       -3.0966690607
 H        -6.2731948355        0.7919110124       -3.7265129581
 H        -7.3301910329        0.6465138131       -2.4426926076
 H        -6.5737867262       -2.7652530706       -1.7646679902
 H        -8.2700096407       -2.3513887732       -2.2637690554
 H        -8.1145447746       -3.0140649897        0.5809181092
 H        -7.5643953327       -4.5126398039       -0.2358080885
 H        -9.9433216686       -7.5632032435       -1.8177503099
 H        -8.7158868262       -8.5331203935       -0.8917276605
 H        -8.2734285250       -7.1026483798       -1.9118928607
 H       -10.8726762110       -5.2577234057        2.1276743931
 H        -9.5652500518       -4.1750111893        1.9421551744
 H        -9.1738723302       -5.8027130366        2.2764070224
 H       -12.0219949186       -4.9272949689        0.0023021479
 H       -11.7872037037       -6.5643435351        0.5298256572
 H       -11.5472078822       -6.1902984295       -1.2059536267
 H        -5.0934954402       -2.4031301716       -0.5244768813
 H        -5.7236969073       -2.1219661572        1.0238595934
 H        -4.0644991440       -1.5398948200        0.6059225699
 H        -7.2128907631        0.4293045482        1.3860018212
 H        -6.2228568321        1.6245451688        0.4466469671
 H        -5.3906350284        0.3130786741        1.4949289019
 H        -9.4301946659        3.9384104272       -3.9466622660
 H        -8.2100797185        4.0064110619       -5.0588054257
 H        -9.0729537503        5.3602471472       -4.5417676974
 H        -6.4539625614        6.3061565648       -2.9892080072
 H        -5.9760905042        4.9186673299       -4.0875020850
 H        -5.5918292537        4.9646345849       -2.3910717262
 H        -9.5617053705        3.4934009036        4.4634597956
 H       -11.2961172789        3.6049237840        4.5705672568
 H       -10.4089962676        5.1071573936        4.4932155994
 H       -11.3452828448        1.7749272342        2.6724863151
 H        -9.8749899813        1.9344663399        1.8273585025
 H       -11.2611933625        2.4258485935        1.0557588818
 H        -9.7604744147        9.8557130515        2.2697081622
 H       -10.3231691186       11.4714805261        2.9090216109
 H       -10.7098478771       10.8754963958        1.2114925909
 H       -11.8583638057       10.3640510814        4.5925986737
 H       -11.3202552410        8.7301028882        4.3598027559
 H       -13.2129412829        9.3976553111        4.2006919428
 H       -12.0312815225        7.3607633966       -4.4268567338
 H       -11.8416000470        6.3823591030       -3.0496776013
 H       -10.9070766287        7.9623438040       -3.1155584667
 H       -13.3265736577        9.5039037378       -4.2979219443
 H       -14.5735397276        9.6395453581       -2.9357084672
 H       -14.6526405095        8.2964314829       -4.0553879360
 Na      -10.3684276756        6.6732264546       -0.3473920839
