117

 C       -15.3037183768        6.7461824356       -2.2543739017
 C       -13.8110333784        7.0352697551       -1.9839074158
 O       -13.2290407740        6.5060695028       -1.0647995379
 C       -13.0094701567        8.0516121728       -2.8453881937
 C       -12.3897552662        8.9869312284       -1.7534598329
 O       -11.1962311571        8.9047794704       -1.3683698527
 C       -13.3935698111        9.8330280911       -0.9750809625
 C       -12.7006792286       10.6214094890        0.2950602740
 C       -12.8610245900       10.0775976388        1.7188549480
 O       -13.9584944670        9.8334989752        2.2334583390
 C       -11.4522808245        9.6645873274        2.4490710839
 C       -11.4029439288        8.2074651723        1.9620731085
 O       -10.3572096316        7.7093023990        1.5011892312
 C       -12.5729498420        7.3075688042        2.2788798363
 C       -12.2579509194        6.0237375290        2.9322676362
 C       -11.5487096360        5.0659724546        1.9367720158
 O       -11.8391969231        5.0655777648        0.7993139848
 C       -10.4382671197        4.1477744879        2.5315275149
 C        -9.0984918234        4.6116096412        1.7747476649
 O        -8.5013581483        5.5861163928        2.2252671698
 C        -8.6742611933        4.0906019618        0.3826068470
 C        -7.8179325638        5.0738540144       -0.3792947096
 C        -8.3237096885        5.3423856979       -1.7249442043
 O        -9.2580257904        6.1214739045       -1.8460387912
 C        -7.7666673032        4.6305660859       -2.9737791213
 C        -7.6364406136        3.0689566995       -2.3905153519
 O        -8.6402802496        2.5056188050       -2.0773026223
 C        -6.2116965594        2.4476138903       -2.3655604593
 C        -6.3884342800        0.9244104562       -2.2107129880
 C        -5.4629168707       -0.0741837799       -1.3869435799
 O        -4.4185803004       -0.3628950818       -1.7637089400
 C        -6.0151434716       -0.6575355639       -0.0055155597
 C        -7.4254282315       -1.1594255890       -0.4623627537
 O        -8.3901325685       -0.3455322170       -0.6755458460
 C        -7.6394455543       -2.6046244455       -1.0803225854
 C        -8.2808240246       -3.5245118035       -0.1279424983
 C        -9.4186900895       -4.3123838449       -0.6204548405
 O       -10.0606642505       -3.8372375163       -1.5812655114
 C        -9.9632302266       -5.5963283887        0.1882164745
 C        -8.9919684067       -6.6902554403       -0.0811999878
 O        -7.9229661581       -6.9026009242        0.5085370996
 C        -9.1934269519       -7.6728668025       -1.2248064199
 C        -9.9343159635       -5.2972704879        1.6524718059
 C       -11.3505387398       -5.9264750918       -0.2787889339
 C        -5.0074335006       -1.6854017955        0.5864124251
 C        -6.2228377156        0.5936709867        0.9430277319
 C        -8.6750348892        4.6397224096       -4.2834910889
 C        -6.4040634324        5.2472421122       -3.5033105171
 C       -10.1933011984        4.3258647061        4.0953454222
 C       -10.7969940011        2.7450699337        2.2619695378
 C       -10.2569811032       10.4893289233        2.0559208411
 C       -11.5529436932        9.6297624020        4.0114612186
 C       -11.8407889776        7.4271625037       -3.7573228013
 C       -14.0690375967        8.7766372301       -3.7586882068
 H       -15.4862848202        7.1039633697       -3.1945422174
 H       -15.8602661802        7.4090346768       -1.5223366538
 H       -15.6703549531        5.6950483281       -1.9536549889
 H       -14.2805027810        9.3259327736       -0.5060784812
 H       -13.7060482205       10.6362150582       -1.5402306815
 H       -13.1149086183       11.6705697829        0.2210676163
 H       -11.5815171902       10.7199747513        0.0285162430
 H       -13.0554295549        7.0670779245        1.3226562904
 H       -13.2873902704        7.8922259341        2.7995920064
 H       -13.1652824852        5.5072560370        3.2182397900
 H       -11.5776393937        6.2113527769        3.7564078030
 H        -9.5395367377        3.7521568053       -0.1004604337
 H        -8.2116207812        3.1515111224        0.5683662647
 H        -6.7198186020        4.8755795301       -0.3528644472
 H        -7.9041807823        6.0859229974        0.1581199286
 H        -5.6906562351        3.1356196436       -1.7068126606
 H        -5.6557128120        2.5156032613       -3.2572783748
 H        -6.3558841131        0.4966551202       -3.1552849519
 H        -7.3929601378        0.7506488847       -1.9817732903
 H        -6.6312577411       -3.0088236863       -1.2660117599
 H        -8.1140877116       -2.6462214098       -2.0629682252
 H        -8.5399933032       -2.9526887157        0.6931201964
 H        -7.5859782965       -4.3857132391        0.2031623265
 H       -10.2214321190       -7.8003260841       -1.5050614868
 H        -8.7549161248       -8.5357010725       -0.8164689763
 H        -8.6560255117       -7.2449563368       -2.1613200392
 H       -10.9783743158       -5.2909205731        2.0455191498
 H        -9.5422434482       -4.2539290031        1.8980537999
 H        -9.3840330569       -6.1089159815        2.3151304711
 H       -11.9896381008       -5.0710963725       -0.0009909140
 H       -11.7807557040       -6.7446655669        0.4181622443
 H       -11.4275855353       -6.2476555016       -1.2849690192
 H        -4.8235854358       -2.7076744984        0.1626120152
 H        -5.1918977114       -1.7536358084        1.6184129406
 H        -4.0227167271       -1.1844597668        0.4696632868
 H        -7.3020378682        0.6429573309        0.9879582915
 H        -5.9434790586        1.5463942127        0.4594476083
 H        -5.8842734974        0.5116459012        1.9075768685
 H        -9.7142991621        4.1756695889       -4.3375452378
 H        -8.1552088545        4.0807695261       -5.0510897358
 H        -8.8798657796        5.5970490839       -4.7785203473
 H        -6.7161758139        6.2273624162       -3.9582250895
 H        -5.8217820622        4.4298481066       -3.9915635034
 H        -5.8373515440        5.3992917536       -2.5815731042
 H       -10.1137027100        3.3489228370        4.4956341244
 H       -10.9011434934        4.8333404893        4.7574166407
 H        -9.3105857905        4.9500941807        4.2192628637
 H       -11.7411514662        2.5205779586        2.7228365964
 H       -10.2597576182        1.9886475553        2.6579534407
 H       -10.8741435631        2.3905857444        1.1882430510
 H        -9.5795465156       10.3597688107        2.8873910584
 H       -10.5835861544       11.4958717319        1.7522450623
 H        -9.7298851401        9.9728619464        1.2769751064
 H       -12.0832983748       10.5484600272        4.5295313771
 H       -10.5208978227        9.6434774016        4.3945219321
 H       -12.2464643413        8.8745905015        4.1331356320
 H       -12.4222761679        7.1839101418       -4.6189039925
 H       -11.4472860239        6.5093840809       -3.3408129830
 H       -11.1488642881        8.1966026363       -3.9259012915
 H       -13.6271428389        9.6638295956       -4.2018508551
 H       -15.0115413702        9.0228800216       -3.2950038485
 H       -14.2279683776        8.0927054215       -4.6050429589
 Na      -10.6386743069        7.0649838011       -0.3634196402
