117

 C       -15.2204275986        6.5152440331       -2.4275845349
 C       -13.8274581819        7.0886942395       -2.1254208251
 O       -13.4243422470        6.9025419316       -0.9534254092
 C       -13.0062340402        8.1211145433       -3.0025773341
 C       -12.3485569534        8.9504404546       -1.8213236156
 O       -11.1907923439        8.8312311222       -1.5061094919
 C       -13.2827684270        9.7818540730       -0.9712772899
 C       -12.5059608397       10.6321752373        0.1264527441
 C       -12.6379415414       10.0788843991        1.5928257618
 O       -13.7310528800       10.0444998125        2.1155540707
 C       -11.2919339243        9.7419039190        2.4066894247
 C       -11.2286069215        8.1508739575        2.1221974305
 O       -10.3624476435        7.6120964480        1.5488939292
 C       -12.5818439335        7.3151795453        2.4072180944
 C       -12.3563561853        5.9890845004        2.9786524300
 C       -11.5023653992        5.0736427506        2.0570308368
 O       -11.7726958438        4.9109346644        0.8660249799
 C       -10.3253079760        4.1497940816        2.5335598126
 C        -9.0507350145        4.7175752889        1.7260459506
 O        -8.4541075091        5.6642358474        2.1278749184
 C        -8.7099850667        4.1586659405        0.4151249740
 C        -7.7834011927        5.0749895355       -0.3080548547
 C        -8.3356579988        5.4062629372       -1.6614995086
 O        -9.3562896276        6.0030255220       -1.8837485746
 C        -7.7045136578        4.5578566641       -3.0711590210
 C        -7.6108500003        3.0739406551       -2.5849282872
 O        -8.6126310203        2.5833751052       -2.1213377068
 C        -6.2560720701        2.3239111147       -2.3459709072
 C        -6.5377121712        0.7725799237       -2.2845646464
 C        -5.5575525836       -0.0590242979       -1.3804664895
 O        -4.3846758805       -0.4409947796       -1.5832089484
 C        -6.1460451198       -0.6652752030        0.0885100984
 C        -7.4717348044       -1.2032320724       -0.3715745920
 O        -8.3441333015       -0.3867515859       -0.5478188954
 C        -7.5927127737       -2.7056166809       -0.8430639943
 C        -8.2418742047       -3.5751942844        0.1712533827
 C        -9.5389257674       -4.2216673151       -0.5596351482
 O       -10.0911827877       -3.7765649098       -1.5347981427
 C       -10.0189118085       -5.5534338946        0.1242516378
 C        -8.8660969996       -6.8259208608       -0.1555793273
 O        -7.9495640894       -6.9057849005        0.6549661617
 C        -9.3089331436       -7.8679678884       -1.2992875691
 C        -9.9662621701       -5.3254947496        1.7430631266
 C       -11.4209922207       -5.8954047537       -0.3926998911
 C        -5.0903574269       -1.6174303778        0.7551714795
 C        -6.2571434927        0.5904351407        0.9933859516
 C        -8.7540745171        4.7129439262       -4.1305236424
 C        -6.4693357728        5.2464578723       -3.5079313102
 C        -9.8741615076        4.3641907454        4.1108001721
 C       -10.7891543469        2.6616133294        2.1681665056
 C       -10.0940867926       10.5628576266        1.8509462137
 C       -11.5872576160        9.8189191820        3.9707546689
 C       -11.8244477767        7.4311428317       -3.7689215350
 C       -14.0949980162        8.9157701534       -3.8374905321
 H       -15.3536984231        6.6871909228       -3.4770704736
 H       -15.9555100196        6.9559972478       -1.7947268371
 H       -15.2573522006        5.4863023441       -2.1116973784
 H       -13.8442078233        9.1088496703       -0.3268948651
 H       -14.0388109475       10.5212301307       -1.4153841807
 H       -12.8919717146       11.6952181984        0.0301202841
 H       -11.4756385953       10.6522724961       -0.2354818437
 H       -13.1628483825        7.3641127503        1.5133166408
 H       -13.2462557672        7.9133453046        3.1735001633
 H       -13.2555178705        5.4419211379        3.1363514001
 H       -11.7629800454        6.2170487758        3.8433977816
 H        -9.6174386593        3.9413130211       -0.0630566069
 H        -8.3757044654        3.1351234496        0.6135299281
 H        -6.7363487469        4.7699561322       -0.4187447406
 H        -7.7351332997        6.0431169621        0.2671556662
 H        -5.8465713787        2.7289083825       -1.4917419294
 H        -5.4976634054        2.4669122927       -3.0965398566
 H        -6.6231579374        0.1661357864       -3.2148682921
 H        -7.5222229312        0.6479668423       -1.8639531162
 H        -6.6394577158       -3.0799084914       -1.3658156104
 H        -8.3359945304       -2.7733121541       -1.6071481929
 H        -8.6939680428       -2.8733442311        0.9594913050
 H        -7.5664417341       -4.3531849042        0.6850539463
 H       -10.4080738049       -7.9054310122       -1.2348400903
 H        -8.7414948924       -8.8482200851       -1.2969579012
 H        -9.2016586824       -7.2231616110       -2.1885845911
 H       -10.9907935240       -5.4622110117        2.1965009790
 H        -9.5486454557       -4.3239496783        2.0707112695
 H        -9.3932768527       -6.1749089654        2.2504061532
 H       -11.9667304849       -5.2101978655        0.3076436290
 H       -11.8328458263       -6.8621229808       -0.1344818277
 H       -11.6020816572       -5.7162746707       -1.4598511264
 H        -4.9156172619       -2.5505687883        0.2053625174
 H        -5.2752509233       -1.8284550282        1.7688103171
 H        -4.0549364780       -1.1216070811        0.6546068551
 H        -7.2237994584        0.9125447935        0.9182632037
 H        -5.5875848093        1.4140144838        0.7344889106
 H        -6.1054478090        0.2570003101        1.9823190672
 H        -9.7424848185        4.3173600121       -3.6855118795
 H        -8.7192015181        4.1819079789       -5.1463380517
 H        -9.0188299378        5.6847009845       -4.4955544004
 H        -6.8923252060        6.0040400677       -4.0981611102
 H        -5.7599555958        4.4870668192       -3.9455525922
 H        -5.8850716375        5.6203225009       -2.5934054589
 H        -9.5410881515        3.4138346690        4.6086512224
 H       -10.7371533675        4.6844903065        4.7308209200
 H        -9.2638678163        5.2265095937        4.1889388221
 H       -11.7906164271        2.5052764287        2.4847032129
 H       -10.3608630073        1.8672525985        2.7755533927
 H       -10.7247729662        2.2959351914        1.2718897531
 H        -9.4382464222       10.9188282230        2.6146375710
 H       -10.6793314263       11.2188741165        1.2154999773
 H        -9.3781102484        9.8853989255        1.2567743987
 H       -12.0300323341       10.6698416139        4.2369260745
 H       -10.5228047856        9.9496125017        4.3785335381
 H       -12.3248459352        9.0319242494        4.2050983025
 H       -12.2127175064        6.5375741999       -4.3531396373
 H       -11.2246433062        7.0523157563       -2.9114327406
 H       -11.3056952074        8.2328257284       -4.2980103384
 H       -13.7049227492        9.8564920098       -4.2671854717
 H       -15.0103904339        9.1432201806       -3.3144782589
 H       -14.2863118240        8.2805870856       -4.7020530359
 Na      -11.0278469204        7.0170871054       -0.5587430419
