117

 C       -15.0263033320        6.2829716204       -2.6994506457
 C       -13.8604901900        7.1352016413       -2.0935525230
 O       -13.5858830790        7.0794225189       -0.8818048163
 C       -13.0856139374        8.1220640628       -2.9892972093
 C       -12.4223595634        9.0716686005       -1.8364798824
 O       -11.2241349878        8.9994430515       -1.8546070703
 C       -13.2479682887        9.8732165171       -0.8878301855
 C       -12.3409897462       10.6875127821        0.0040728163
 C       -12.4231470016       10.2521269603        1.4546459637
 O       -13.5068801675       10.2384626692        1.9633247354
 C       -11.2897626376        9.7384097328        2.2781432054
 C       -11.2523041502        8.1646690522        2.1265480525
 O       -10.2869143413        7.6305686562        1.6459474944
 C       -12.5224105393        7.3519654100        2.5248115169
 C       -12.3220415549        5.8936117269        3.0664195887
 C       -11.3966017437        5.0082603313        2.1413497165
 O       -11.7223824813        4.9297734532        0.9023367256
 C       -10.2289840136        4.1841819865        2.6442741112
 C        -9.0340063857        4.7887340047        1.7920029797
 O        -8.4734387190        5.7357538523        2.2557331000
 C        -8.7475046435        4.1640062962        0.3088961898
 C        -7.6971322278        5.0147649928       -0.4988674614
 C        -8.3780962840        5.2936328405       -1.8201900695
 O        -9.4056339085        5.9324757164       -1.9063578499
 C        -7.7645883495        4.6297044038       -3.0300929789
 C        -7.5782360566        3.0441823234       -2.5341262734
 O        -8.6692108382        2.5708186263       -2.2294571320
 C        -6.2494932558        2.1913685695       -2.3493409860
 C        -6.4800345801        0.6447187042       -2.3289263314
 C        -5.5434918332       -0.0989384207       -1.2139200200
 O        -4.3948918345       -0.3396727069       -1.6536156388
 C        -6.1346051463       -0.4920251338        0.1315313534
 C        -7.5221471605       -1.2703564740       -0.2928780149
 O        -8.4960440952       -0.6034925703       -0.2553564508
 C        -7.5128078469       -2.6212009772       -0.7355574426
 C        -8.3793229048       -3.5997984100        0.2573125522
 C        -9.5356377632       -4.2969919079       -0.3587940936
 O        -9.9843115933       -3.8101463652       -1.3256673063
 C       -10.0764637453       -5.6383501311        0.2233704747
 C        -9.0955264955       -6.8006545011       -0.1224388349
 O        -8.1008382967       -6.9558984215        0.5078391623
 C        -9.2806272536       -7.8215525802       -1.1936529130
 C       -10.1085808046       -5.5008199747        1.7453799287
 C       -11.4393358473       -5.8926031990       -0.4159974575
 C        -5.2211516926       -1.5388453668        0.7926603704
 C        -6.3378788037        0.6978705354        1.0883972379
 C        -8.9249997769        4.6592817812       -3.9992631924
 C        -6.2840757993        5.3430352996       -3.4583309663
 C        -9.7399718619        4.2591126456        4.0490774174
 C       -10.5676191977        2.7843751039        2.2890525350
 C        -9.9154381219       10.4155978638        1.8500944972
 C       -11.5639234883       10.1549227369        3.8187652905
 C       -12.0389507866        7.4146222268       -3.8387192057
 C       -13.8897631099        9.0277044766       -3.9350825084
 H       -14.9045745837        6.2190113099       -3.8313928156
 H       -15.9648890946        6.5535815791       -2.3505233633
 H       -14.8605107506        5.3695560361       -2.2780593487
 H       -13.9029080493        9.2505131801       -0.3059972039
 H       -13.9226264923       10.6989991932       -1.3336945873
 H       -12.6306925967       11.6987581047       -0.1503242048
 H       -11.3923848664       10.5759841488       -0.4411097923
 H       -13.0866084074        7.3554089599        1.5479349332
 H       -13.1999671096        7.9721377219        3.1629888924
 H       -13.2386041421        5.3788934565        2.7410102845
 H       -12.0494680666        5.8996076837        4.1326239176
 H        -9.7373290199        4.0399276093       -0.2515530035
 H        -8.4564107316        3.0961724621        0.4132998116
 H        -6.7494656938        4.5140106323       -0.6507631718
 H        -7.4630568957        5.9608127379       -0.0631484320
 H        -5.7080801989        2.4238784553       -1.3995221235
 H        -5.5451876368        2.4667572331       -3.1499376820
 H        -6.2247515854       -0.0842934258       -3.1544360519
 H        -7.6216475356        0.4651302776       -2.1657812591
 H        -6.5122338686       -3.0156593482       -0.9014841046
 H        -7.9711887138       -2.7821586410       -1.7535539189
 H        -8.8203022936       -3.0642648212        1.2158540440
 H        -7.5931858601       -4.2547713925        0.5876655661
 H       -10.1453746929       -8.5020920235       -0.9869406927
 H        -8.2662759519       -8.3214503928       -1.2324081961
 H        -9.5337422229       -7.3202573730       -2.0682215642
 H       -11.1099236998       -5.8670648664        2.1370933838
 H        -9.9152065230       -4.4576497345        2.0542043313
 H        -9.4715386960       -6.1916034736        2.2094789257
 H       -12.1760772766       -5.4217717162        0.2010578030
 H       -11.7441990984       -6.8915348057       -0.5569225398
 H       -11.3706665660       -5.4454676246       -1.4677312997
 H        -5.1278756246       -2.2694083223        0.0286263926
 H        -5.7277887544       -2.0435069679        1.7011895133
 H        -4.2132817496       -1.3695530520        1.0309135644
 H        -7.1191158043        1.4299707163        0.7835882322
 H        -5.4177128600        1.1561533971        1.2806876099
 H        -6.6517338350        0.1532581599        2.0215636618
 H        -9.7927297701        4.2340710826       -3.5764084562
 H        -8.8497545354        4.2090467588       -5.0050531754
 H        -9.2541699164        5.6768627765       -4.3498282382
 H        -6.6244582263        6.1700442509       -4.0619884633
 H        -5.9478797000        4.5571065936       -4.1058428622
 H        -5.5160315675        5.4466785135       -2.6921498713
 H        -8.9151767467        3.5380030547        4.2280331006
 H       -10.5556332743        3.8902021950        4.6822104291
 H        -9.6315194969        5.2986352891        4.3833139889
 H       -11.5461854373        2.4617576185        2.4496972413
 H       -10.0438487306        1.9164417381        2.6956961965
 H       -10.4607501488        2.6279274858        1.1639290283
 H        -9.3157128117       10.6899578245        2.7413877282
 H       -10.3401090595       11.1381939570        1.2259391843
 H        -9.1482708625        9.7580315891        1.3511466373
 H       -11.6302536420       11.2551962457        3.6944184852
 H       -10.6074675407       10.3002168493        4.2205462938
 H       -12.5000489532        9.8294441211        4.3874690610
 H       -12.3142726905        6.3660691425       -4.1180493690
 H       -11.1432670837        7.4231531898       -3.1806988883
 H       -11.8576162019        8.1856375079       -4.6618546736
 H       -13.2547924629        9.8505622376       -4.3063148180
 H       -14.6966445682        9.5319880808       -3.3591605410
 H       -14.2672603879        8.5321904630       -4.8263318949
 Na      -11.3580709504        6.6724778303       -0.6620741377
