117

 C       -14.7998702545        6.0757280995       -2.9452561022
 C       -14.0322721423        7.1470875354       -2.1237406968
 O       -13.8495587587        7.0190952080       -0.9438521211
 C       -13.1583414560        8.2468751752       -2.9673598640
 C       -12.3719496432        9.1672076448       -1.9768279209
 O       -11.1362978495        9.2406255343       -2.0104997232
 C       -13.1281149397       10.0451242750       -1.0492479571
 C       -12.1372079667       10.8481911846       -0.0858836542
 C       -12.4075028857       10.3591528839        1.3763341294
 O       -13.5499042423       10.4193836249        1.8496669468
 C       -11.1313740907        9.8878437220        2.2916376560
 C       -11.1787929571        8.1893155811        2.2394636894
 O       -10.2914739942        7.5789317413        1.5714717128
 C       -12.4854798760        7.4112755186        2.6021006324
 C       -12.2157009766        5.9230581682        3.1261449800
 C       -11.3968911040        5.0194964061        2.1339005012
 O       -11.6554814545        5.0150337695        0.9455340961
 C       -10.1625731592        4.1867589278        2.6567896957
 C        -8.9751292714        4.8416733695        1.8259709893
 O        -8.2871060754        5.7926499506        2.2013759951
 C        -8.7457736262        4.2428324507        0.4487499373
 C        -7.6970120157        5.0572508647       -0.3762871247
 C        -8.3244523532        5.3403758225       -1.8384663967
 O        -9.4190958166        5.8850469988       -1.8807064789
 C        -7.8407212106        4.5141364333       -3.0640676456
 C        -7.6383134217        2.9833816451       -2.5648055611
 O        -8.6639414080        2.4132489585       -2.3038739060
 C        -6.3408980152        2.2731127480       -2.3922666611
 C        -6.4701481319        0.7972597123       -2.3196370213
 C        -5.5055117680       -0.0097214622       -1.3626556349
 O        -4.4152791648       -0.2644199626       -1.5737551869
 C        -6.2096815969       -0.5043024765        0.1071059599
 C        -7.6234157516       -1.2094407842       -0.1098010389
 O        -8.7290422520       -0.6737842461        0.0958015004
 C        -7.4356633979       -2.7543625584       -0.6044390547
 C        -8.2599020960       -3.6514020333        0.4593790058
 C        -9.4333960824       -4.3372607562       -0.3208625937
 O       -10.0126357791       -3.8486119329       -1.3180980320
 C       -10.1578591157       -5.6936685397        0.2985427256
 C        -9.0990408180       -6.8403986067       -0.0696202289
 O        -8.0744510093       -6.8485891562        0.5897848940
 C        -9.4231476188       -7.8205664926       -1.3417454666
 C       -10.3506332317       -5.6960176841        1.8572799182
 C       -11.5904826200       -5.9033578261       -0.4269793442
 C        -5.2071648394       -1.4944716505        0.8506308637
 C        -6.4530297605        0.7224851616        1.0785505969
 C        -8.7829837496        4.5267574112       -4.1873589810
 C        -6.4152246260        5.2244621319       -3.4358275955
 C        -9.7756467115        4.2177858655        4.1618665885
 C       -10.3723406439        2.6671816009        2.2992176434
 C        -9.6799793742       10.1889274011        1.8853418401
 C       -11.4829243459       10.4172340836        3.6594349963
 C       -12.2013950811        7.3069951440       -3.8930377668
 C       -13.9231581838        9.1505316148       -3.9791924425
 H       -14.4585094888        5.9741286192       -3.9324489766
 H       -15.8630536002        6.3677960865       -2.8342722323
 H       -14.6935931257        5.1124132152       -2.3410349977
 H       -13.8640804502        9.4190991616       -0.4672049360
 H       -13.7330950512       10.7523023950       -1.5200666249
 H       -12.2604928984       11.8768986999       -0.1911047341
 H       -11.1678318142       10.5571267746       -0.4608664244
 H       -13.1596692972        7.5703588005        1.6894693876
 H       -12.9959807809        7.9296608559        3.3249173705
 H       -13.2125545807        5.4021840225        3.1952214456
 H       -11.6257944704        6.0625215860        4.0601290456
 H        -9.7678368211        4.1236763676       -0.0817240298
 H        -8.4315329421        3.1718977911        0.5237678018
 H        -6.8695534585        4.3675369768       -0.4792790659
 H        -7.3377981343        5.9498247451        0.0571739905
 H        -5.6439391907        2.5511869732       -1.4590581693
 H        -5.7079627884        2.5121820004       -3.2846975538
 H        -6.2651089765        0.1816892096       -3.2275731372
 H        -7.5467724325        0.5082173169       -2.0730871273
 H        -6.4940516855       -3.1020530746       -0.9129150696
 H        -8.0369114822       -2.9293336607       -1.5576860081
 H        -8.7706321127       -3.0856033308        1.2109025160
 H        -7.4842640128       -4.2639492929        0.9390560136
 H        -9.9118781587       -8.6709959078       -0.9113185651
 H        -8.4939477309       -8.0770274836       -1.7241653975
 H       -10.1201540859       -7.4535091139       -2.1334970250
 H       -11.0754600477       -6.4562202281        2.1512222138
 H       -10.6287801770       -4.6705820016        2.1307805645
 H        -9.4767169286       -6.0898533782        2.3954224673
 H       -12.4542321018       -5.4661898171        0.0037349326
 H       -11.8185495058       -6.9974787186       -0.5435208388
 H       -11.3970261153       -5.6439925404       -1.4557615237
 H        -4.5860862490       -2.1504809860        0.2186824436
 H        -5.8596832114       -2.0672581400        1.5345412055
 H        -4.4612972990       -1.0624754178        1.4623438940
 H        -6.7843751700        1.6155135911        0.4022877877
 H        -5.5220320345        0.9736592978        1.6451070140
 H        -7.2633669988        0.5026356416        1.8159407801
 H        -9.6768704102        3.9690376986       -4.1030849596
 H        -8.3423875568        4.2609767400       -5.0680759467
 H        -9.0878500723        5.5271414184       -4.5066252727
 H        -6.7418013607        6.2572078837       -3.7452739975
 H        -6.0121758972        4.7275065226       -4.3096170830
 H        -5.7696702574        5.0666287160       -2.6521856318
 H        -8.7158587683        4.1015464019        4.2935951402
 H       -10.2366028670        3.3903604680        4.7000565670
 H       -10.1944208606        5.1346147829        4.6570379480
 H       -11.1615334386        2.0938574352        2.8602815672
 H        -9.5260904550        2.0153515615        2.4493134196
 H       -10.6337959500        2.3688611689        1.1829625198
 H        -9.0640918907        9.9979765516        2.7687013730
 H        -9.6814457826       11.1378245158        1.3959534431
 H        -9.2580519450        9.4506827117        1.2967711627
 H       -11.3092728053       11.6083633129        3.5306265126
 H       -10.8457895651       10.2983512773        4.5125731815
 H       -12.5795757713       10.3062826751        3.7336532237
 H       -12.6223890904        6.3045250453       -3.9197836968
 H       -11.1683744456        7.2767872187       -3.5037563155
 H       -12.2354029676        7.8135240136       -4.8579749290
 H       -13.2482855978        9.8212363186       -4.5234779098
 H       -14.6236702373        9.8356421841       -3.4416755571
 H       -14.4459331191        8.5782382558       -4.7657767579
 Na      -11.4833173780        6.3408595343       -0.6583374089
