117

 C       -14.8411156103        6.3025146169       -3.2734517503
 C       -13.8038745275        7.1072329462       -2.3571189278
 O       -13.8645996766        6.9654469711       -1.1492331026
 C       -13.0875165796        8.1624648807       -3.1879777944
 C       -12.1521520832        9.2640050435       -2.2856477271
 O       -10.9264954568        9.1745663476       -2.4081384907
 C       -12.6994119679       10.4584068513       -1.5138796969
 C       -11.6975212735       10.8228790582       -0.3874415996
 C       -12.0493469876       10.4865610137        1.0822827334
 O       -13.2056776945       10.5960593370        1.3843533701
 C       -10.9203655607        9.7514051955        2.0691201617
 C       -11.3005043365        8.2951438659        1.8340069785
 O       -10.9014746163        7.6412709072        0.8541209745
 C       -12.2615009705        7.5378794574        2.7605064996
 C       -11.6182366116        6.2839134685        3.5252617300
 C       -11.2052659829        5.1322385103        2.5705330955
 O       -11.8437736629        4.9564019797        1.4825107497
 C       -10.0125690493        4.2950287636        2.8844956875
 C        -8.6901248383        4.9162053987        2.0185606600
 O        -7.8902973782        5.6528974888        2.5673591696
 C        -8.5129734641        4.3600257370        0.6283242643
 C        -7.9797244697        5.3580740412       -0.5002757257
 C        -8.7316817666        5.1342827499       -1.9649595461
 O        -9.8273298333        5.5521316892       -2.3113932380
 C        -7.8070131910        4.4493032027       -2.9602140269
 C        -7.8253355865        2.8213871379       -2.7174907024
 O        -8.9379028435        2.3597692315       -2.5692632291
 C        -6.5129946925        1.9951470850       -2.4638479049
 C        -6.7698064367        0.4739882841       -2.2899924400
 C        -5.7284341659       -0.0508239035       -1.1785828777
 O        -4.5894326527        0.0584807038       -1.3605421395
 C        -6.3965040050       -0.4345189256        0.3048557587
 C        -7.6481699326       -1.4100983851        0.4169891335
 O        -8.6414922807       -1.0970501933        1.0192452932
 C        -7.5110040306       -2.7505846432       -0.1864507739
 C        -8.5456615981       -3.8268046401        0.6329914283
 C        -9.5803574664       -4.4393728998       -0.1421755780
 O        -9.9768188481       -4.0049238047       -1.1879543779
 C       -10.3492229013       -5.8811586317        0.3744393952
 C        -9.3245268365       -6.8293622694       -0.0710463603
 O        -8.2601260730       -6.7634490277        0.5169256545
 C        -9.4410873526       -7.8277525749       -1.3569100843
 C       -10.5369415001       -5.8146658261        1.9077248617
 C       -11.7703743483       -5.9025165397       -0.3583911777
 C        -5.2236924896       -1.0583384666        1.2026879007
 C        -6.7711118497        0.9542995948        0.8734341802
 C        -8.6137931076        4.5090668414       -4.2667567605
 C        -6.3602285990        5.0715061699       -3.1414917912
 C        -9.5310276375        4.3223280205        4.4007247009
 C       -10.3659442034        2.7267672666        2.5023969388
 C        -9.4264002506       10.1336413416        1.6031608327
 C       -11.1701423936       10.1389336244        3.5096209560
 C       -12.2270618454        7.5323427057       -4.3025193044
 C       -14.2334124289        9.0371896555       -3.9423043911
 H       -14.5532829785        6.4056125203       -4.2753589231
 H       -15.7960956754        6.6909666274       -3.0208638116
 H       -14.7753167747        5.2367364314       -3.1114104707
 H       -13.6829426569       10.2419625610       -1.0585685081
 H       -13.0518180671       11.3132640003       -2.2090950786
 H       -11.5367249525       11.9088526753       -0.2843837978
 H       -10.7674732001       10.3304593772       -0.7222978946
 H       -13.2063452199        7.2198966543        2.1922644937
 H       -12.7364778233        8.1783424720        3.4829913910
 H       -12.4459721005        6.0028875367        4.1498828967
 H       -10.7084061671        6.5705984471        4.0174262530
 H        -9.4983480057        3.9395942050        0.3134059578
 H        -7.8029025148        3.5659791053        0.7894708543
 H        -6.8946941964        5.1772619938       -0.6573706683
 H        -8.1350425672        6.3910710921       -0.1596228636
 H        -6.0731560895        2.4608984714       -1.5983411933
 H        -5.7799477071        1.9866603973       -3.1877367049
 H        -6.6597114898        0.1168267448       -3.3503697653
 H        -7.7453516488        0.2747090501       -1.7737215749
 H        -6.5238740861       -3.0821190200       -0.3887989543
 H        -7.7674235918       -2.6484881955       -1.2550105690
 H        -8.7319744909       -3.1194206815        1.5033231688
 H        -7.8735328253       -4.6303823258        0.9806242927
 H        -9.4650400763       -8.9265505371       -1.0296585962
 H        -8.6655479912       -7.6432021336       -2.1142377443
 H       -10.4300552197       -7.6369818110       -1.8569082606
 H        -9.9179053667       -6.6443121600        2.3390486338
 H       -11.6352318608       -5.8318908209        2.1145697423
 H       -10.0392980251       -4.9590152996        2.3845297778
 H       -12.1361081671       -4.9164416197       -0.0988519593
 H       -12.5418088941       -6.6580827498       -0.1836640696
 H       -11.6389545254       -5.8266257579       -1.4931174975
 H        -4.6029312321       -1.6752602424        0.5661051982
 H        -5.3789237226       -1.6399051520        2.1869666866
 H        -4.5273402012       -0.3150206256        1.3828469217
 H        -7.1109398140        1.6558932469        0.1468828082
 H        -5.9553482548        1.1777714904        1.4404196561
 H        -7.5143538818        0.7639286784        1.6080920119
 H        -9.6526790085        4.1825781257       -4.2639630465
 H        -8.2042966115        4.0084529645       -5.1497606911
 H        -8.6206869491        5.5880125660       -4.7489766885
 H        -6.3766979347        6.0734180472       -3.6598438067
 H        -5.8311295801        4.4547471980       -3.8542395714
 H        -6.0526431305        4.9328548824       -2.1301605167
 H        -8.9835337210        5.2048738146        4.7549665510
 H        -8.8490409833        3.4733441966        4.4246982394
 H       -10.2459011577        4.0737604822        5.2446593404
 H       -11.1956466485        2.3291740668        3.0182753403
 H        -9.6125921480        2.0265059938        2.5118216911
 H       -10.8361336846        2.5684461751        1.4719026491
 H        -8.8047033863        9.1520380464        1.7948897004
 H        -8.9811077243       11.0443746793        2.0971349128
 H        -9.3753637282       10.1420807308        0.4957471155
 H       -10.6683165820       11.1338169077        3.9156988203
 H       -10.7455705958        9.2944182594        3.9486405072
 H       -12.2220914063        9.9798880854        3.8214573378
 H       -11.7542693941        6.6229712758       -3.9504181588
 H       -11.5909154088        8.3643371456       -4.5500742187
 H       -12.8783536819        7.2362680688       -5.1708685171
 H       -13.8745350389        9.8413910046       -4.5598489542
 H       -14.9376896964        9.4747812572       -3.2129365967
 H       -14.8305702736        8.4698559939       -4.6480375083
 Na      -11.4817529372        6.3035681364       -0.5722745084
