117

 C       -14.9255928724        6.4516686388       -2.9702018658
 C       -13.7146671253        7.2217657949       -2.6222545948
 O       -13.0911190177        6.9757127831       -1.5819921516
 C       -13.1627316604        8.3786509572       -3.4293050519
 C       -11.9965612912        9.0429548816       -2.4839595710
 O       -10.8762834283        8.6616376453       -2.5237877446
 C       -12.5410882253       10.1461200237       -1.5245816018
 C       -11.5193856850       10.7457562045       -0.5676019763
 C       -11.8902403503       10.5192560772        0.9016844905
 O       -13.0242380697       10.6534143351        1.2837679957
 C       -10.8837676495        9.8197323213        1.8481240470
 C       -11.2108451621        8.3548123429        1.4689817956
 O       -10.8971053061        7.9176824522        0.3902364186
 C       -12.0801001635        7.5069802324        2.5278848458
 C       -11.1070257133        6.7053977669        3.4026167193
 C       -11.0120430282        5.3294462143        2.7225209995
 O       -11.6908369271        5.0553721474        1.7978688717
 C        -9.9035930385        4.2300777218        3.1067205526
 C        -8.7425303518        4.8212853891        2.0754802912
 O        -7.8434577909        5.5079971563        2.4207596645
 C        -8.8121981776        4.4717974092        0.4943758718
 C        -8.4056388840        5.6766681950       -0.3914047345
 C        -8.8090487389        5.1933394901       -1.8695426949
 O       -10.0150989207        4.9618442564       -2.0081167716
 C        -7.8734183596        4.4411348274       -2.9224621131
 C        -8.0825237089        2.7489715796       -2.6839349113
 O        -9.1739348015        2.2074312823       -2.6337450742
 C        -6.8170979874        1.8478738083       -2.5847025479
 C        -7.1408495848        0.3981714747       -1.9654424722
 C        -6.0435584414       -0.0078877391       -0.9488545096
 O        -4.8017453620        0.0006292975       -1.2936480105
 C        -6.4672972509       -0.3689934609        0.5393424602
 C        -7.5763832005       -1.4475578673        0.7723897966
 O        -8.5128639424       -1.1890244701        1.5040850096
 C        -7.6714734037       -2.7901055007        0.0642607722
 C        -8.5912700600       -3.7850144888        0.6667617090
 C        -9.8224870276       -4.3623530471       -0.2287776494
 O        -9.9432300169       -3.8252119259       -1.3186938511
 C       -10.3396735039       -5.7845215812        0.3387601051
 C        -9.2854055383       -6.8898854626       -0.1355324948
 O        -8.3134159951       -7.0376891142        0.5789194765
 C        -9.6368922332       -7.7888169995       -1.2674568171
 C       -10.4700704958       -5.7340756693        1.9306780176
 C       -11.6890761065       -5.9506554514       -0.2874505525
 C        -5.2696832898       -0.8677122066        1.2826365123
 C        -7.0563093519        1.0515649180        1.1167246116
 C        -8.4252518208        4.6458246079       -4.3974516349
 C        -6.3467024253        4.8381592939       -2.8721759724
 C        -9.3085994152        4.3645952913        4.4737481143
 C       -10.3595197999        2.9228431725        2.7103971210
 C        -9.3352215645        9.9103110227        1.4700460940
 C       -11.1463792628       10.2577903801        3.4026869121
 C       -12.3002420013        7.7537781889       -4.6385106830
 C       -14.1778092327        9.4831823513       -3.8734895376
 H       -14.7641127269        5.8195702284       -3.9535870135
 H       -15.7428081955        7.2044638713       -3.0140894266
 H       -15.0425142288        5.6870744854       -2.2410343500
 H       -13.5192275328       10.0446484060       -1.0821658043
 H       -12.8018488236       10.9230935738       -2.1993017188
 H       -11.5954064010       11.8133010544       -0.6728092668
 H       -10.5666987226       10.3933543535       -0.8442947878
 H       -12.7555658821        6.8834459298        2.0395945010
 H       -12.8217069396        8.2196497644        3.0261907802
 H       -11.5589749550        6.3998465348        4.3894742288
 H       -10.1612799418        7.3127646638        3.4954813625
 H        -9.8568826558        4.2374243788        0.2486198873
 H        -8.0858812168        3.6162308151        0.2824216449
 H        -7.3439156837        5.8275363925       -0.4024041527
 H        -8.9528544613        6.5260698477        0.0171854152
 H        -6.0548177599        2.3137228589       -1.8761159095
 H        -6.3397575328        1.9060671825       -3.6802604400
 H        -7.0867938138       -0.2674363739       -2.8226329001
 H        -8.1510591310        0.5646000760       -1.5725601821
 H        -6.6454392344       -3.2322939226       -0.0679120154
 H        -7.8872904436       -2.8325920397       -1.0028422646
 H        -8.8735407870       -3.2183026393        1.5527534029
 H        -7.9460105846       -4.5910897834        1.0008523699
 H        -9.3790134397       -8.7864196232       -0.9984847964
 H        -9.0679305310       -7.5487314562       -2.1904703740
 H       -10.6305445692       -7.7202387277       -1.5036133123
 H        -9.4560731334       -5.6672471158        2.3900217660
 H       -11.0627364545       -6.5770808185        2.3284584766
 H       -10.9508681917       -4.7068419659        2.0409332785
 H       -12.5085961266       -5.3080275816        0.0938517862
 H       -11.9763390713       -6.9834830391       -0.2364090061
 H       -11.6646457002       -5.6883181182       -1.3268261236
 H        -5.2600085881       -1.9328638170        1.4454469452
 H        -5.3319334525       -0.5372818051        2.2957339495
 H        -4.2563891529       -0.5288867605        0.8929812607
 H        -8.1010535034        0.9718213543        0.8081060934
 H        -6.4182961667        1.8583504429        0.6919333579
 H        -6.9085985169        1.1377159723        2.2425578097
 H        -9.3459430333        4.1298188304       -4.5051276148
 H        -7.8583028465        4.0552385480       -5.1274313535
 H        -8.5852130611        5.5789496052       -4.8297569147
 H        -6.3257708546        5.8450872745       -3.1260915650
 H        -6.0088946375        4.4162086517       -3.8010976699
 H        -5.8282483131        4.5703644400       -1.9303679659
 H        -9.7804552726        5.2803710384        4.8459774244
 H        -8.2214973279        4.3395703334        4.5690361794
 H        -9.5986233902        3.6513416816        5.1994297918
 H       -11.3662692881        2.6593276649        3.0307807634
 H        -9.6402315278        2.0555082802        2.9890135465
 H       -10.4855501083        2.7478109456        1.6423668872
 H        -8.7222178962        9.4967138968        2.2606908205
 H        -9.0308654124       10.9351550941        1.3329078234
 H        -9.1941342847        9.3607322714        0.5147690103
 H       -10.9554953170       11.2694052943        3.3980522160
 H       -10.7211194390        9.6217896346        4.2744464962
 H       -12.2652924914       10.2183147387        3.5981158628
 H       -11.2633536089        7.7101285565       -4.2341496492
 H       -12.4642832770        8.3492750743       -5.5633705134
 H       -12.5089582173        6.6866346700       -4.6946192455
 H       -13.5715501728       10.3365594610       -4.2395345204
 H       -14.9372042828        9.8470684537       -3.1920413088
 H       -14.7671706643        9.2298073031       -4.7756195233
 Na      -11.5150009290        5.9407004718       -0.7072306252
