117

 C       -15.3394955336        7.0538787873       -2.9802992276
 C       -13.7827477190        7.3057922122       -3.0201514856
 O       -13.0620750510        6.4622840671       -2.4152215778
 C       -13.0976181127        8.4992529194       -3.7213389725
 C       -11.9203660796        8.9819508612       -2.8465225501
 O       -10.7893148404        8.5964470686       -2.9468214634
 C       -12.1593966713       10.3364663202       -2.0517922884
 C       -11.0001926279       10.5475915227       -1.0575155363
 C       -11.5050130095       10.7696670306        0.4656918223
 O       -12.5210605971       11.4082386093        0.7232868630
 C       -10.5692078108        9.9897675827        1.5198897132
 C       -10.9535179744        8.4849880081        1.3272418706
 O       -10.5794963708        7.9207672816        0.3364669035
 C       -11.8096907558        7.6997779947        2.4890885362
 C       -10.9877629019        6.6804531903        3.4328801337
 C       -10.8632325156        5.3041632459        2.8267389079
 O       -11.5941251148        4.8663073380        2.0091053299
 C        -9.5997607961        4.3903259013        3.1172124845
 C        -8.5348541722        4.5495207327        1.9966874162
 O        -7.6406820946        5.3276919085        2.2336573852
 C        -8.4473125113        3.9818132964        0.5325400654
 C        -8.7271899215        5.2173204128       -0.3802567844
 C        -9.1543148653        4.7232692239       -1.8229805710
 O       -10.3751352197        4.7339619590       -1.9813659522
 C        -8.0562260268        4.0435847449       -2.7074581266
 C        -8.4775495467        2.5414672688       -2.6841916775
 O        -9.6210615536        2.2261134571       -2.9821880711
 C        -7.3958388526        1.4721892769       -2.3799355538
 C        -7.7909630293        0.4405848717       -1.2375082942
 C        -6.6042153749       -0.0934975756       -0.5667034494
 O        -5.6885316598       -0.5580398793       -1.3055006955
 C        -6.6496577726       -0.2405786855        0.9920773223
 C        -7.8080493771       -1.3187685831        1.3596985325
 O        -8.5491524144       -1.2733731288        2.2366574443
 C        -7.8802858195       -2.4041990597        0.2190459437
 C        -8.3014958553       -3.7395553362        0.7120291735
 C        -9.5057552179       -4.3339573520       -0.0274431944
 O        -9.7449016524       -3.8834967409       -1.0875288643
 C       -10.3200052152       -5.7059639858        0.3649235417
 C        -9.3561441830       -6.8047185679       -0.0513091748
 O        -8.4867325902       -7.1749234790        0.6792753423
 C        -9.6528399708       -7.6157124402       -1.3232635411
 C       -10.6703441913       -5.8500183307        1.9231715856
 C       -11.6442216228       -5.6322419322       -0.4526545032
 C        -5.3089740949       -0.7099225170        1.5181705188
 C        -7.0396147704        1.1538605643        1.6704196286
 C        -8.0642494096        4.6458249546       -4.1200791314
 C        -6.6440844791        4.3527947821       -2.2609992641
 C        -8.9426332934        4.8952239131        4.4938198367
 C        -9.9892826059        2.9032864063        3.2848497884
 C        -9.0882593584       10.3031467132        1.0488887957
 C       -10.9342224099       10.4911641983        2.8468902664
 C       -12.4337211345        7.8964962057       -5.0282936037
 C       -14.0072862718        9.6556740723       -3.9533462991
 H       -15.5524112399        6.3981669859       -3.8816354979
 H       -15.8534497170        7.9662062657       -3.1066000697
 H       -15.5613521902        6.4664042478       -2.1447568480
 H       -13.1116017794       10.1957199238       -1.5210341521
 H       -12.3266099713       11.2209150087       -2.6799782557
 H       -10.4571046979       11.4264284620       -1.4102147443
 H       -10.3733958726        9.7335750652       -1.2172204692
 H       -12.6362784223        7.3103390582        1.9647246123
 H       -12.3489067376        8.3976006957        3.2365482243
 H       -11.4853454652        6.8632429072        4.4251832547
 H        -9.9274164648        6.9925295134        3.6233383458
 H        -9.1383141349        3.1453471115        0.4232369533
 H        -7.3478530562        3.7758049206        0.2802911582
 H        -7.8485899961        5.7909417491       -0.3473899451
 H        -9.5352181230        5.8233306126       -0.0301707007
 H        -6.3854716474        1.9858116601       -2.2042496204
 H        -7.3053430236        0.6800222611       -3.2669946058
 H        -8.3552472440       -0.2333276956       -1.9127996102
 H        -8.4993693535        0.9592192704       -0.5249868018
 H        -7.0169560418       -2.6776499328       -0.4535272860
 H        -8.5945507321       -2.0337188925       -0.5408359011
 H        -8.8257833658       -3.4333008316        1.6487731299
 H        -7.4578756981       -4.3771056498        0.8901109025
 H        -8.7530361952       -8.0470301098       -1.7851295290
 H       -10.2944820209       -7.1404730935       -2.1224349136
 H       -10.3586087685       -8.2999961046       -0.9940316146
 H        -9.7599637121       -6.0996664100        2.5147170794
 H       -11.3705050488       -6.6907638880        2.1992609436
 H       -11.1051184043       -4.8771823003        2.0169821757
 H       -12.0947090550       -4.5948082838       -0.4139809879
 H       -12.3879195842       -6.2236834269       -0.0078253481
 H       -11.6475712495       -5.8659350292       -1.5273181076
 H        -5.2867454950       -1.7444149144        1.6443761387
 H        -5.0798335933       -0.2492474352        2.5314676442
 H        -4.4926276027       -0.2854583473        0.9333700423
 H        -8.0512698150        1.4215503118        1.4162399014
 H        -6.2851766747        1.7981412365        1.3456074121
 H        -7.0307692852        0.8769944213        2.7744546531
 H        -8.9932532741        4.6129344365       -4.5759040751
 H        -7.4388089087        4.1458628073       -4.8807904838
 H        -7.8697290228        5.7189812407       -4.0949869358
 H        -6.6787938385        5.3832966878       -2.2862491439
 H        -5.9575855583        3.9211942409       -3.0031838337
 H        -6.3731188465        4.0047387840       -1.2005695689
 H        -8.5846773445        5.9685521000        4.3021849940
 H        -8.1075233819        4.2534715687        4.8002057056
 H        -9.5887691306        5.0350537792        5.3485241616
 H       -10.4410051362        2.6763500906        4.2361761630
 H        -9.0736678025        2.2575248473        3.3405236294
 H       -10.6113565443        2.3828242662        2.3627423477
 H        -8.4105155171        9.9889833652        1.8599311991
 H        -8.7079280105       11.2915775417        0.9338376581
 H        -8.9654115546        9.7474062821        0.0501648924
 H       -10.5748545922       11.5697497219        2.8822584927
 H       -10.3886402040        9.9050275558        3.5791427591
 H       -11.9502829658       10.3155970520        3.2428716949
 H       -12.3857592092        8.7005593297       -5.8037147710
 H       -13.0932185210        7.0665319482       -5.3612079303
 H       -11.4110102049        7.5315565047       -4.7025717060
 H       -13.4842473371       10.5785415650       -4.2398524145
 H       -14.6692012025        9.9576232233       -3.1745276666
 H       -14.7088405904        9.4996197441       -4.7722992972
 Na      -11.7880369970        5.7878966897       -0.5050613780
