117

 C       -15.3942297548        7.0680946647       -3.0144736645
 C       -13.8171506818        7.3098777274       -3.0054752551
 O       -13.1445226597        6.3457103372       -2.5733506451
 C       -13.1606710697        8.5308195916       -3.8449302170
 C       -11.8666493678        9.1251387219       -2.9796144088
 O       -10.7723446723        8.5897227757       -3.1134004068
 C       -11.9862698782       10.4672034154       -2.1929777240
 C       -10.9304486575       10.5452945155       -1.1271107596
 C       -11.3501876151       10.7798369174        0.2808527063
 O       -12.2282508005       11.4844734664        0.6867948894
 C       -10.5754796179        9.9967813239        1.4539790260
 C       -10.9059323812        8.4380188986        1.3595248877
 O       -10.5564251556        7.8395617326        0.3381818355
 C       -11.8007080844        7.6998411798        2.3494327255
 C       -10.9471162412        6.7652802247        3.3604056198
 C       -10.7442658889        5.2910920412        2.7589553796
 O       -11.6330315971        4.8381507640        2.0073929425
 C        -9.5286247891        4.4436850445        3.1832796833
 C        -8.3627954751        4.6264656036        2.0393500697
 O        -7.4234642739        5.4103590503        2.2814573365
 C        -8.4515758462        4.0040045625        0.6466181453
 C        -8.6258384359        5.1503774949       -0.3263158383
 C        -9.1880886016        4.6109516213       -1.7616318212
 O       -10.3720055915        4.7835205625       -2.0749263088
 C        -8.1365891024        4.0662970580       -2.6262925352
 C        -8.6540371687        2.5039639889       -2.7870159947
 O        -9.7411837062        2.3232179482       -3.1831545548
 C        -7.5656084190        1.4634625005       -2.4713021384
 C        -7.9619224837        0.5877056026       -1.1939319100
 C        -6.6512319188       -0.1926094201       -0.5311621264
 O        -5.7586496127       -0.6905706823       -1.0811543872
 C        -6.6754236437       -0.3296084601        1.0765883764
 C        -7.8154848358       -1.3323241561        1.4047034539
 O        -8.5183084732       -1.2775654771        2.4043143354
 C        -7.9765846500       -2.5303722549        0.5020887996
 C        -8.4127304033       -3.8461696697        0.9750459622
 C        -9.5340846365       -4.3933502723       -0.0637451701
 O        -9.6814734404       -3.8030756234       -1.0890568643
 C       -10.3072860836       -5.5722175640        0.3633289723
 C        -9.4321216441       -6.8625708762        0.0242343340
 O        -8.4431514388       -7.1352533859        0.7213273908
 C        -9.6338326095       -7.6128454622       -1.4271083183
 C       -10.6178452758       -5.7085852241        1.8704194017
 C       -11.6232990003       -5.5642493180       -0.4273415883
 C        -5.2512156839       -0.7831865232        1.5091285315
 C        -7.0182745201        0.9907692196        1.7483733467
 C        -8.2990528880        4.5250867378       -4.0575992618
 C        -6.6439978294        4.1652880346       -2.0815068748
 C        -8.7214824003        4.7573325523        4.5249326445
 C       -10.1117400110        3.0068756794        3.5023687827
 C        -9.0464592621       10.1561671700        1.0985963544
 C       -10.8842399080       10.7283147357        2.7669809155
 C       -12.4382342450        7.8252277436       -4.9850635579
 C       -14.1670133320        9.6337235776       -4.1963299681
 H       -15.6661943837        6.6476760247       -3.9665948040
 H       -16.0192966508        8.0054722357       -2.8540468767
 H       -15.4957984834        6.2070875279       -2.2241869500
 H       -12.8942623602       10.4251614449       -1.7305910855
 H       -12.0508449230       11.3491137901       -2.8826409006
 H       -10.2465395960       11.3935266715       -1.2970275079
 H       -10.3526403034        9.6687793486       -1.2856695721
 H       -12.5426040009        7.1971371426        1.7426920313
 H       -12.4047170948        8.3230788466        2.9662794430
 H       -11.7104301566        6.6976361357        4.1804062345
 H       -10.0924873982        7.2119519192        3.9160831517
 H        -9.3338607786        3.3391479146        0.6297102399
 H        -7.4803904056        3.5159988535        0.4228042311
 H        -7.6426098363        5.6298705128       -0.4532176163
 H        -9.2582240775        5.9674557990        0.0715491310
 H        -6.6219200419        2.0073933554       -2.1152387960
 H        -7.3077096163        0.7348209753       -3.2523131079
 H        -8.8464012540       -0.0345626505       -1.4286083531
 H        -8.2349061584        1.3894894212       -0.4622175618
 H        -7.0924040273       -2.8441689325       -0.1323088015
 H        -8.6810447214       -2.2496662253       -0.3098652017
 H        -8.7875518587       -3.7160601119        2.0242292931
 H        -7.6517337084       -4.5823304854        0.9108035724
 H        -8.6838290568       -7.9171328424       -1.7543745353
 H       -10.1033891234       -7.0443628549       -2.1317522263
 H       -10.3983639610       -8.4207231817       -1.3744908172
 H        -9.7897960057       -6.3626645908        2.1887355738
 H       -11.5285836980       -6.2960893627        2.1582107227
 H       -10.6527461939       -4.7120230049        2.2707243516
 H       -12.3387925027       -4.7915362414       -0.2283238134
 H       -12.1760469359       -6.4572246827       -0.2006893292
 H       -11.4480649455       -5.5745988239       -1.5313240116
 H        -5.2091442132       -1.8131304116        1.1302677541
 H        -5.0156323048       -0.7803137411        2.6294844619
 H        -4.5070531592       -0.1435697528        1.1172175970
 H        -7.7733345926        1.7015701593        1.2737191557
 H        -6.0235819831        1.3860214130        1.7983666756
 H        -7.4180820525        0.6093535626        2.7061246921
 H        -9.2929234725        4.3338100876       -4.4817119649
 H        -7.6823481480        3.8893809529       -4.6017263112
 H        -8.0721313616        5.5389854669       -4.3532152921
 H        -6.3394656136        5.2369436938       -2.0078866335
 H        -6.0234627431        3.5400808936       -2.6999421953
 H        -6.6115262487        3.7060103206       -1.1171159849
 H        -7.8987055475        5.4476876647        4.3540145614
 H        -8.4057756240        3.8824343769        5.0936376550
 H        -9.3393921581        5.4204580516        5.1725511463
 H       -10.7058557550        2.9001966288        4.4351233107
 H        -9.2628305973        2.3905966708        3.7501474680
 H       -10.5416746141        2.4707376014        2.6620002437
 H        -8.3424059480        9.6400271114        1.7856906800
 H        -8.6624317601       11.1405538815        1.2711236599
 H        -8.9021746277       10.0147110084        0.0954666769
 H       -10.4211330664       11.8081953995        2.6502651486
 H       -10.2630113866       10.2256812888        3.4830779539
 H       -11.8684851476       10.6316988408        3.2381248369
 H       -12.6682206238        8.3582482551       -5.9324081742
 H       -12.8441588421        6.7836956085       -5.0227359730
 H       -11.3158375359        7.7826303212       -4.7398624800
 H       -13.6898903696       10.4925706625       -4.6612978066
 H       -14.6190641512       10.1276675728       -3.3071646750
 H       -15.0129559634        9.4211091352       -4.8267194498
 Na      -11.9550500231        6.0080859547       -0.5972138922
