117

 C       -15.3300330708        7.2280592187       -3.0919190854
 C       -13.8325196598        7.2867276084       -3.0479448764
 O       -13.1613932503        6.4379656051       -2.5812686848
 C       -13.1354423842        8.4622187164       -3.8424379271
 C       -11.9216702724        9.2197100475       -3.1298227587
 O       -10.8593574678        8.6393695985       -3.1358492832
 C       -11.9678175062       10.5066990882       -2.2716519288
 C       -10.8100841556       10.5691813726       -1.2326257693
 C       -11.2575094572       10.7503481024        0.1547076821
 O       -12.0603447748       11.5785001567        0.4874419689
 C       -10.4125801734        9.9366800212        1.4416135240
 C       -10.8721673268        8.4222624349        1.3260723925
 O       -10.5770590918        7.7765859980        0.2759750222
 C       -11.8144585089        7.7270036391        2.3929182481
 C       -10.8947568638        6.8376769613        3.2487577158
 C       -10.6518692074        5.3807806538        2.7064221363
 O       -11.4627898249        4.8810216982        1.8907683299
 C        -9.3331541456        4.4887540812        3.3710079775
 C        -8.2858875134        4.6996426383        2.1977947687
 O        -7.3213978489        5.4007273289        2.3129571727
 C        -8.6860977738        4.0259031239        0.8170602854
 C        -8.7215328279        5.1824166030       -0.2129710096
 C        -9.1270278661        4.7372526761       -1.6762906550
 O       -10.2949174206        4.8987387540       -1.9540007396
 C        -8.2094122443        3.8947483103       -2.6559449509
 C        -8.6590437485        2.4115786578       -2.7934048180
 O        -9.7539018120        2.2455237550       -3.3047392937
 C        -7.7339649355        1.2075511700       -2.5257882424
 C        -7.9315079628        0.6267596173       -1.0623401871
 C        -6.7810401674       -0.1192440922       -0.4465673746
 O        -5.9772948080       -0.6966907881       -1.1245473683
 C        -6.6903532914       -0.3855164300        1.1566822149
 C        -7.7396243339       -1.5145605044        1.5684427378
 O        -8.4648656921       -1.1946994577        2.6066517114
 C        -7.8389759664       -2.6441433665        0.5923229399
 C        -8.5288005715       -3.9087324803        1.1287704074
 C        -9.5506439574       -4.4692923337       -0.0131419106
 O        -9.6235969315       -3.7617113075       -1.0451782392
 C       -10.3399785016       -5.6886503653        0.3338021970
 C        -9.3970743523       -6.7993575583       -0.0639121339
 O        -8.5119015810       -7.1381378337        0.6902591390
 C        -9.5341973471       -7.5775899809       -1.3842456782
 C       -10.6218307187       -5.6043170416        1.9174887129
 C       -11.7638611753       -5.6024791259       -0.4368002501
 C        -5.3540555842       -0.9433329287        1.4618370707
 C        -6.9949643617        0.9758676989        2.0282292283
 C        -8.4486523085        4.5447551819       -4.0969896007
 C        -6.7388056017        4.0785476206       -2.1541178441
 C        -8.7241392560        4.8589092241        4.6630885818
 C       -10.0879903721        3.1097290427        3.4438200483
 C        -8.8837938684        9.9534960145        1.2341587817
 C       -10.7641298589       10.7735080761        2.7485428469
 C       -12.6311182636        7.6920683051       -5.2246647373
 C       -14.1742152794        9.4307138900       -4.3577137913
 H       -15.7993307299        7.2244753674       -4.1040049621
 H       -15.6664119416        8.2151827269       -2.6156982680
 H       -15.5508957455        6.3077616452       -2.4911497518
 H       -12.9530566218       10.8061376974       -1.8443326759
 H       -11.7647030756       11.1984167192       -3.0757197693
 H       -10.1587921765       11.4487888407       -1.3573569342
 H       -10.1572589723        9.6491034398       -1.4502838316
 H       -12.6032067192        7.2203371716        1.7787457676
 H       -12.3564485850        8.3424193397        3.0250648387
 H       -11.3301061088        6.7524544561        4.2406736786
 H        -9.9749898076        7.3371379069        3.5360155899
 H        -9.7330869809        3.6879895872        0.8614368116
 H        -7.9822377516        3.2774944754        0.6296506714
 H        -7.7465864996        5.8003710030       -0.2778939782
 H        -9.4483878782        5.9249418760        0.2065887918
 H        -6.7321706372        1.3907206163       -2.6850218673
 H        -8.0094002419        0.3997112917       -3.0789933151
 H        -8.6120181235       -0.2271959613       -1.1399968059
 H        -8.4034742306        1.3452692911       -0.4399722594
 H        -6.8912136599       -2.9020922614        0.2030946222
 H        -8.4371619907       -2.2637541878       -0.2789922713
 H        -8.9810665781       -3.5298896036        2.0388672518
 H        -8.0252063619       -4.9432793001        1.2612698822
 H        -8.6122878289       -8.0836175749       -1.5379709141
 H        -9.8724722240       -6.9322717242       -2.1762594566
 H       -10.4407652027       -8.1972922806       -1.2868529450
 H        -9.8155068457       -6.2046736365        2.2898393518
 H       -11.5188394549       -6.1623514508        2.1734181973
 H       -10.7121506336       -4.5138601600        2.2643928027
 H       -12.5567870896       -5.1096496824        0.0786634956
 H       -12.3397042711       -6.5178274819       -0.7907308230
 H       -11.5331318101       -5.0793489064       -1.3309458894
 H        -5.1148821692       -1.7814098261        0.7017059141
 H        -5.3633379677       -1.3757074607        2.4118232857
 H        -4.5667165726       -0.1853588744        1.5950870188
 H        -7.6603803824        1.7002197885        1.5151243457
 H        -5.9434578147        1.4115771796        2.1751753663
 H        -7.4774819732        0.5809014536        2.8814579937
 H        -9.5129365499        4.4916089419       -4.5059881053
 H        -7.8465324175        4.0087872253       -4.8371162960
 H        -8.1415224006        5.5643373056       -4.2165090348
 H        -6.5706173975        5.1705091892       -1.8870854582
 H        -6.0509508874        3.6391716842       -2.8801207870
 H        -6.5969597605        3.4617621754       -1.3096709287
 H        -7.7721269262        5.3086297811        4.6045554683
 H        -8.6777764638        4.0365090983        5.3903051296
 H        -9.3415166010        5.6823319275        5.0710232728
 H       -10.9115832603        3.1389766613        4.1611256806
 H        -9.5841569138        2.2250999005        3.7878770908
 H       -10.3755038194        2.9456772876        2.5097018135
 H        -8.3603670440        9.4998699004        1.9997100857
 H        -8.6210912787       10.9786268382        1.5120966373
 H        -8.4668633251        9.8809136979        0.2794454694
 H       -10.5294633236       11.7914671487        2.5901546205
 H       -10.3463531355       10.4876040771        3.7912399608
 H       -11.8276672669       10.5403720209        2.8937884915
 H       -13.1275297298        8.3093806436       -5.9743298001
 H       -13.0277025693        6.6640008410       -5.2967299456
 H       -11.5582767728        7.6984217299       -5.2927782514
 H       -13.8217819811       10.1011474604       -5.1269471102
 H       -14.6646012395       10.1889434449       -3.7074862635
 H       -14.9983878581        8.9138245084       -4.8524248769
 Na      -11.9723528256        6.1666120369       -0.7156479489
