117

 C       -15.6662456207        8.0448009337       -3.3291952532
 C       -14.1072438693        7.7976512232       -3.0939925529
 O       -13.7178587721        7.1645471855       -2.0602150711
 C       -13.0440061130        8.2090292853       -4.1070755756
 C       -11.6434562624        8.6514042015       -3.4291058393
 O       -10.5932673713        8.0966994831       -3.7428970399
 C       -11.7911165908        9.7951278700       -2.5166927192
 C       -10.3072467743       10.2628163596       -2.1036578815
 C       -10.0787623757       11.0474391355       -0.8507285143
 O       -10.4677274497       12.1770052781       -0.7184950943
 C        -9.7405585667       10.3677292933        0.6608487742
 C       -10.5255994579        9.0436992308        0.6114181736
 O       -10.4821825942        8.2148322429       -0.2906190810
 C       -11.6063532467        8.6249068203        1.6737609533
 C       -10.9013355240        7.8724219530        2.7747558552
 C       -10.4893274920        6.4043700609        2.3799006842
 O       -11.0285669577        5.8910777314        1.4347495368
 C        -9.5033230457        5.5441747502        3.2560261639
 C        -8.3058680938        5.1921717793        2.3564027907
 O        -7.1563048625        5.6724477212        2.5742250387
 C        -8.6968631789        4.1706258645        1.2162339116
 C        -8.0894463668        4.7060965704       -0.0649654417
 C        -9.0128015514        4.1613645503       -1.3130969981
 O       -10.0923025386        4.7194131431       -1.3859744781
 C        -8.5128851379        3.0853861660       -2.3048167983
 C        -9.5475712229        1.7448935561       -2.1700839487
 O       -10.6406450501        1.8693655898       -2.6618572843
 C        -8.9518800776        0.3655983853       -1.6817949888
 C        -8.6241975966        0.2162001985       -0.1048461361
 C        -7.1498473516       -0.6146064583        0.0375541843
 O        -6.8596962954       -1.2882356489       -0.9324604331
 C        -6.5254083653       -0.8212495164        1.4329528821
 C        -7.7639744996       -1.7883826056        2.0487966182
 O        -8.6049458634       -1.4511443794        2.7434664859
 C        -7.7422749767       -3.2542181181        1.2601522563
 C        -8.9209505401       -4.1590567239        1.6620352080
 C        -9.8588514411       -4.2051329006        0.5155172714
 O       -10.2368085852       -3.2734550583       -0.1795989491
 C       -10.5029392656       -5.6408515889        0.4135627728
 C        -9.4686062459       -6.7771689759        0.1621344870
 O        -9.1340324815       -7.4279967126        1.1526225412
 C        -8.8922824357       -7.0775539391       -1.2528074021
 C       -11.2492964522       -5.9125970664        1.7507049106
 C       -11.7355291159       -5.7039711313       -0.7223965668
 C        -5.1431420228       -1.6758106981        1.3346885664
 C        -6.5440613169        0.2942206296        2.4541635993
 C        -8.5895466481        3.6073598638       -3.7418867331
 C        -7.0600727025        2.6466902080       -2.0685663517
 C        -9.0882177391        6.1621568366        4.6259352029
 C       -10.4136121514        4.2407802314        3.5204466536
 C        -8.2608708172       10.0298655822        0.6362339624
 C        -9.9397561707       11.2826566816        1.8260231691
 C       -12.9983605279        7.0009726422       -5.0334711973
 C       -13.5299433776        9.3943468077       -4.9219143095
 H       -15.7820751650        7.6547596260       -4.3271793504
 H       -16.0770913220        9.1135011673       -3.2171469741
 H       -16.3111480212        7.4888718965       -2.5164601508
 H       -12.4174373281        9.5005022756       -1.7055108573
 H       -12.3451919421       10.5684776768       -3.0792704187
 H        -9.7260732896       10.6052306889       -3.0019064864
 H        -9.8447262993        9.3630161053       -1.8104666903
 H       -12.2637610640        7.9900639206        1.1710865087
 H       -12.1462957808        9.3664122735        2.3023319382
 H       -11.6840697575        7.8306793330        3.5617604784
 H       -10.0637415380        8.4015779520        3.2123713933
 H        -9.7206265174        3.9282583970        1.1330806431
 H        -8.3015204696        3.1576211939        1.4808591776
 H        -7.0418031534        4.4025305199       -0.2080138666
 H        -8.0553149359        5.8317129508       -0.0093564958
 H        -7.9942621054        0.1980545080       -2.0669030283
 H        -9.5554631150       -0.3766040014       -2.1201723579
 H        -9.2820140996       -0.3896286094        0.5150561337
 H        -8.8517525442        1.1653840928        0.3853284787
 H        -6.8458157472       -3.7700604816        1.6197773203
 H        -7.7556750371       -2.9847427059        0.1728685921
 H        -9.5244099758       -3.8004108965        2.5023862439
 H        -8.5406184745       -5.0352685922        2.1497361206
 H        -8.4577953831       -7.9914318285       -1.4927831583
 H        -8.2552913424       -6.3005748714       -1.5030750994
 H        -9.7946467679       -7.0737402429       -1.8996996605
 H       -10.3323431368       -6.0628436922        2.3674435961
 H       -11.9959740244       -6.7510884563        1.6977597956
 H       -11.5730398719       -5.0020467056        2.1061321656
 H       -12.5597850828       -5.0737048164       -0.3986343597
 H       -12.0171810676       -6.6479133162       -0.9652033654
 H       -11.5864668426       -5.2165426350       -1.7011957193
 H        -4.9871135988       -2.1609255012        0.3953590517
 H        -5.1309897564       -2.4694002311        2.1861715398
 H        -4.3487536814       -0.9402531028        1.4973133608
 H        -5.8177506008        0.9561534018        1.9755508028
 H        -6.3280463482       -0.1816952336        3.3710295137
 H        -7.5762763261        0.7686392215        2.4454491196
 H        -9.5817919316        3.8947804980       -4.0863611405
 H        -8.2265777492        2.9676854068       -4.4944335076
 H        -8.0474389288        4.5656820112       -3.8529211400
 H        -6.3306340986        3.4085620864       -2.2078362743
 H        -6.8045159178        1.9273062761       -2.8557290354
 H        -6.8272688267        2.1613875263       -1.0733928982
 H        -9.8126397840        6.4130382714        5.4427761734
 H        -8.4169580338        7.0569532223        4.6162863300
 H        -8.4320455099        5.4249326098        5.1187460839
 H       -10.7149713965        4.5490208756        4.5403051072
 H        -9.7510167191        3.4436226043        3.4456728855
 H       -11.2617078183        4.0433922489        3.1071856118
 H        -7.8513536700        9.5388880240        1.5555053744
 H        -7.6680483525       10.8834560889        0.4101244625
 H        -8.0549156883        9.1916247006        0.0113564286
 H        -9.0637105171       12.0228369377        1.8793411305
 H        -9.9054600599       10.8137765501        2.7685822128
 H       -10.7249401891       12.0465874711        1.7735773298
 H       -12.4126746492        7.2135784845       -5.9529259123
 H       -14.0318774664        6.7279087667       -5.3002410222
 H       -12.4478658921        6.0883863865       -4.6424452043
 H       -12.7428747493        9.8270407324       -5.5368362840
 H       -13.9929151482       10.2198470203       -4.4452785978
 H       -14.3053677369        9.1839687596       -5.6349607375
 Na      -11.7987235167        6.3177498631       -0.9882176115
