117

 C       -15.4715274320        8.0557012427       -3.1795897549
 C       -14.0043134177        7.7830889797       -3.0478469606
 O       -13.6849121620        7.1485691715       -2.0180373079
 C       -13.1093827719        8.1711214662       -4.2350344625
 C       -11.7022005322        8.6704075925       -3.5612104229
 O       -10.7022237802        8.0350287386       -3.6493866714
 C       -11.7268140315        9.9131753683       -2.4941104081
 C       -10.2580855192       10.2605259696       -2.1055348447
 C       -10.2367007138       11.1022383477       -0.7934145720
 O       -10.1128129362       12.3034021757       -0.9202300378
 C        -9.6900370716       10.2831028766        0.5634725002
 C       -10.5123746291        8.9706158343        0.4366776553
 O       -10.2250621011        8.1611105757       -0.4779862521
 C       -11.5134759373        8.6665892360        1.6100773950
 C       -10.7284301534        7.9108803461        2.7406575606
 C       -10.5613032097        6.4973271456        2.3538120281
 O       -11.1216813525        5.9662165463        1.4227892479
 C        -9.5951002574        5.5591815060        3.3619859100
 C        -8.3468877048        5.2738073942        2.4411854358
 O        -7.3353653402        5.8535451579        2.4388036659
 C        -8.6794417318        4.3647967037        1.2186855054
 C        -8.1203941050        4.7014850208       -0.1087351842
 C        -9.0212147961        4.1068995128       -1.3167910603
 O       -10.0437380929        4.7234493626       -1.5956836221
 C        -8.5563928866        2.9677605918       -2.1965460503
 C        -9.5064442150        1.6564272202       -2.1120975875
 O       -10.7081554819        1.7647443869       -2.4120934554
 C        -9.0706931580        0.2479941707       -1.7544604964
 C        -8.5815089889        0.1054620272       -0.2293013210
 C        -7.3308899041       -0.6817605980        0.0373343253
 O        -6.8318237869       -1.2766002720       -0.8632581079
 C        -6.6699306950       -0.8930822128        1.5276648288
 C        -7.5956044730       -1.9456788088        1.9910560211
 O        -8.5925532634       -1.5472138799        2.6426417524
 C        -7.6007355634       -3.3453313411        1.3754720975
 C        -8.9766282050       -4.1376742174        1.7905783448
 C        -9.9634969429       -4.2558040179        0.5617918763
 O       -10.1827111553       -3.2385044723       -0.1215540424
 C       -10.6481597657       -5.6580389326        0.4632360700
 C        -9.5703294463       -6.7694344258        0.2265181472
 O        -9.1348525863       -7.4787535670        1.1247481724
 C        -8.9649902638       -6.9126130043       -1.1465347952
 C       -11.4717892597       -6.0539932947        1.7248529755
 C       -11.6391120991       -5.7439070437       -0.7602556437
 C        -5.2855309476       -1.6090707588        1.2990511360
 C        -6.4848740239        0.3492063535        2.4348773700
 C        -8.7837334094        3.4504741249       -3.6104902785
 C        -7.0841976068        2.6416741368       -1.8448228847
 C        -9.0779080528        6.2665682079        4.6442443645
 C       -10.5482235633        4.3708330255        3.8366679731
 C        -8.1760649055       10.0557203280        0.4526285488
 C        -9.9482996893       11.2402784400        1.7330456823
 C       -12.8338390916        6.8329570644       -4.9715131680
 C       -13.6372855675        9.2597709272       -5.1526540060
 H       -15.7042886376        7.6593449330       -4.2177190131
 H       -15.7542409742        9.1432347937       -3.0883067554
 H       -16.0469941397        7.6244215761       -2.4026275197
 H       -12.4493883418        9.6679343968       -1.7004922960
 H       -12.0291320981       10.9495247897       -2.9084503970
 H        -9.9666757729       10.9972496888       -2.9228726104
 H        -9.5197902140        9.4526152339       -2.0927246585
 H       -12.4693402470        8.1372017211        1.3667425358
 H       -11.7618734900        9.5757517310        2.1027009111
 H       -11.2609682544        7.9300216500        3.6888686266
 H        -9.7558186389        8.2756315678        2.9121211268
 H        -9.7353089899        4.3277612173        1.0807519475
 H        -8.5817771338        3.2855966693        1.3904303256
 H        -7.0931660976        4.3099830114       -0.2299962989
 H        -7.9739631108        5.8449072929       -0.2329467896
 H        -8.3108395858       -0.1904810333       -2.2905819121
 H        -9.9527838934       -0.3038782280       -1.9031407108
 H        -9.3212446820       -0.3693974419        0.3339398492
 H        -8.6429619960        1.0779753996        0.2473459747
 H        -6.7103695312       -3.8784027719        1.8210358460
 H        -7.5168668082       -3.0646076977        0.3103172659
 H        -9.5982543371       -3.5639057344        2.5357273258
 H        -8.7649717391       -4.9335096813        2.4189651659
 H        -8.7703997342       -7.8988586475       -1.4955958381
 H        -8.0680860100       -6.3458195075       -1.1321777553
 H        -9.6989067733       -6.5722489475       -1.9152052985
 H       -10.7237258327       -5.9069784658        2.4782369864
 H       -11.8369813660       -7.1246913424        1.6311396462
 H       -12.2477671054       -5.2317123937        1.8691920075
 H       -12.4847945225       -5.1797624085       -0.5713910417
 H       -11.8796024025       -6.7828288692       -1.0444454742
 H       -11.3490219584       -5.2543860566       -1.6846944428
 H        -5.2287380599       -2.1605980466        0.2781659088
 H        -4.9284672976       -2.2814741687        2.0715986277
 H        -4.6738517240       -0.7204950505        1.2150978724
 H        -5.3932347720        0.5454905285        2.2838526294
 H        -6.9309741670        0.0760512847        3.3904114395
 H        -6.9951680958        1.2026573643        2.0093340944
 H        -9.8841697004        3.6699546450       -3.8743490167
 H        -8.4943515329        2.8370856563       -4.4351923152
 H        -8.3685765597        4.4656026545       -3.7583148015
 H        -6.4342364043        3.5409938163       -1.5984042033
 H        -6.5358511187        2.2553932057       -2.6991789017
 H        -6.8901857108        1.9458495665       -1.0541909519
 H        -9.6521695887        6.1579352460        5.5437871511
 H        -8.8431596050        7.3075765798        4.6209973997
 H        -8.0838639716        5.8332542077        4.9435542106
 H       -10.8267126347        4.6655211033        4.7965921454
 H        -9.8710144292        3.5142044103        3.8062765106
 H       -11.5921538675        4.1665160412        3.4075306676
 H        -7.8954617969        9.4927709959        1.3679413471
 H        -7.6590985124       10.9983456591        0.5579580313
 H        -7.7662347552        9.3895298517       -0.2286699495
 H        -9.1741075038       11.9101337577        1.8536063732
 H        -9.9854569656       10.7144220871        2.7859612544
 H       -10.7550539574       11.9613350812        1.6469315724
 H       -12.3880194750        7.0920347281       -5.9564986135
 H       -13.7139239467        6.1461315490       -5.1070813801
 H       -11.9426955204        6.2961730069       -4.5517792816
 H       -13.0533181007        9.5176862328       -6.0427218899
 H       -13.8343072344       10.2208937213       -4.6600625178
 H       -14.6355494233        9.0946497948       -5.5303578197
 Na      -11.6322592470        6.5190330816       -0.9752132797
