117

 C       -15.0146463141        8.0606336133       -2.6464642346
 C       -13.6076552423        7.7501696516       -2.5961198919
 O       -13.0926728579        7.1532655937       -1.6728412395
 C       -12.8164092747        7.8505370665       -3.8157859107
 C       -11.5436922576        8.4825086572       -3.3331466072
 O       -10.5473502766        7.9192251559       -3.0766387134
 C       -11.6467281128       10.0836402390       -3.0561812502
 C       -10.1890806065       10.6609060826       -2.9226026822
 C        -9.7448306752       11.4411424651       -1.4877422022
 O        -9.5547115709       12.6232401662       -1.5179546034
 C        -9.3984523257       10.5733402758       -0.1692093749
 C       -10.0623105708        9.2311305645        0.0874805863
 O        -9.5657908439        8.2954812795       -0.5733899805
 C       -11.2930245008        8.9084488452        0.9645041691
 C       -10.8758727894        8.2396776553        2.4288476526
 C       -10.8989160110        6.6667699727        2.4339462238
 O       -11.7432571932        6.0463629662        1.8325438582
 C        -9.8777705883        5.8433533785        3.3561232212
 C        -8.8398958194        5.5239860491        2.1882298057
 O        -7.9324296187        6.2406334269        1.9975774465
 C        -9.1417816069        4.3961373271        1.2152565285
 C        -8.6376105724        4.6108064516       -0.1458266542
 C        -9.3165039300        3.9828191645       -1.3769741819
 O       -10.3315136400        4.4093573018       -1.8952150858
 C        -8.7688715592        2.6642397010       -2.0125197861
 C        -9.8811525173        1.6383555013       -1.6618730325
 O       -10.8740987232        2.1220279424       -1.1741351613
 C        -9.4732936712        0.0777427855       -1.6113569314
 C        -8.6317590445       -0.0587411829       -0.2604103985
 C        -7.3418039576       -0.7635697249       -0.1597413028
 O        -6.6886460072       -1.0774664345       -1.1362588176
 C        -6.8536352004       -1.2680870999        1.3717062516
 C        -7.8978242174       -2.2762613491        2.0403739129
 O        -8.6760732563       -1.7514540834        2.9176850622
 C        -7.7857134555       -3.8156141052        1.9934226264
 C        -9.1601661937       -4.3391030290        2.2219338436
 C        -9.9381775518       -4.3481077500        0.9829986026
 O        -9.8525564417       -3.4933564523        0.1528678816
 C       -10.8598803716       -5.6548568934        0.5347281109
 C        -9.6461685430       -6.6783014489        0.3131662608
 O        -9.5327718639       -7.5542546997        1.1248167076
 C        -8.7470314104       -6.5806164576       -0.9812630376
 C       -11.8009836014       -6.2546314353        1.6764160307
 C       -11.6493347633       -5.3864530359       -0.7395284582
 C        -5.4670236596       -1.9434822509        1.3296303396
 C        -6.6829953244        0.0814893290        2.1616707771
 C        -8.9178828487        2.8268769222       -3.5987460818
 C        -7.2555064574        2.5149480002       -1.6887379821
 C        -9.2783100596        6.7217266928        4.5109794346
 C       -10.5821089801        4.6937565963        4.0274996986
 C        -7.8024161738       10.3919506949       -0.2126688461
 C        -9.5961385740       11.5665356731        1.1207491004
 C       -12.4935330542        6.4744829890       -4.5116705058
 C       -13.3547786951        8.8738154943       -4.9190833732
 H       -15.3785301574        7.1928917445       -3.3869990093
 H       -15.2393858092        9.0739534433       -3.0886902496
 H       -15.5772212590        7.9950726324       -1.7174233495
 H       -12.0065198676       10.1231503996       -2.0641532032
 H       -12.4240178576       10.5947041174       -3.6501802658
 H       -10.0460993869       11.3786409116       -3.7186872579
 H        -9.5713082647        9.8087858385       -3.1444806799
 H       -11.9300945586        8.2175910581        0.3767940758
 H       -11.8190450954        9.7667381846        1.2246589195
 H       -11.6632971923        8.4913971853        3.1516578285
 H        -9.9328083740        8.6665969921        2.7308482944
 H       -10.2066244925        4.3245301104        1.1508848800
 H        -8.9532587759        3.3610713478        1.5260230293
 H        -7.5888524360        4.2465882763       -0.1185177506
 H        -8.5383666304        5.7293004292       -0.3988216865
 H        -8.9527708994       -0.1269773028       -2.4441923501
 H       -10.3217679026       -0.5280673635       -1.5574953610
 H        -9.4551299015       -0.4638045973        0.2684719857
 H        -8.4751008329        0.9735760244        0.1422708298
 H        -7.0699942895       -3.8371697132        2.8552934862
 H        -7.3637712232       -4.0271209608        1.0132152830
 H        -9.6930971222       -3.9692991078        3.1094408463
 H        -9.0559587772       -5.3385948866        2.5962423751
 H        -9.2286735167       -6.2977925190       -1.8691723598
 H        -8.2282324238       -7.5422838210       -1.0565291195
 H        -8.0901701654       -5.7733803598       -0.9070545560
 H       -11.4796914207       -5.9968538473        2.6410385730
 H       -11.8084701524       -7.3402037774        1.5849212891
 H       -12.7575372586       -5.7833747465        1.2301612464
 H       -12.3676500347       -4.6357557588       -0.6204312344
 H       -12.3016726100       -6.3065454379       -0.9468651883
 H       -11.0959895408       -5.1936827653       -1.6200268065
 H        -5.6493294882       -3.0134178444        1.7009486536
 H        -4.6938119950       -1.5904497326        1.9312328703
 H        -5.1585711608       -1.8410365411        0.2730295549
 H        -6.3651105542       -0.3686544264        3.1240683027
 H        -7.7298158891        0.5542094505        2.2490930307
 H        -5.9142459287        0.7061973899        1.8014579955
 H        -9.8569023246        3.2138399568       -4.0169475159
 H        -8.9835391819        1.8834766480       -4.1778099979
 H        -8.1332094769        3.3943702734       -4.0049074457
 H        -6.5889664537        3.3463413461       -2.0816375075
 H        -6.8601829148        1.5896427772       -2.0834893677
 H        -6.9553770681        2.4530805558       -0.6976616937
 H        -9.9723312664        7.5204976690        4.8331142475
 H        -8.3440444744        7.1713752901        4.1182028002
 H        -8.9323338308        6.1986060114        5.4750645656
 H       -11.3617283828        5.0665162849        4.5729787039
 H       -10.0046190326        4.1983302036        4.7667509137
 H       -11.0105401701        4.1701565176        3.1166044384
 H        -7.3374004450       10.1288840833        0.7223252286
 H        -7.2934895334       11.3618601371       -0.3368403226
 H        -7.4747526335        9.7348605167       -1.0325134903
 H        -9.2192538482       12.5197777423        0.9010932757
 H        -9.2521834597       11.3293183974        2.1981646446
 H       -10.6770722428       11.7214397994        1.2613770377
 H       -11.4513285461        6.5679459099       -4.8748703525
 H       -13.0909844872        6.1753722602       -5.4038475310
 H       -12.4783998498        5.6238708353       -3.8294163222
 H       -12.6154977800        9.1791252089       -5.6476501848
 H       -13.9365533326        9.7472075934       -4.6292964677
 H       -14.0780829455        8.3589011012       -5.5278414319
 Na      -10.9815846850        6.3683744101       -1.2028110781
