117

 C       -15.1028603129        7.9832779258       -2.4669050358
 C       -13.5660653294        7.5490028299       -2.4329081278
 O       -13.1095743801        7.1595402211       -1.4223352523
 C       -12.5924448335        7.8471961240       -3.8090341168
 C       -11.3838501832        8.6216550742       -3.2321081084
 O       -10.4199006996        7.8883005830       -2.9850930404
 C       -11.3373702830       10.0757842008       -2.9879891889
 C       -10.0146269113       10.6795207037       -2.8539404426
 C        -9.6639026968       11.4228369908       -1.6841765514
 O        -9.6151174612       12.6020013338       -1.7577085210
 C        -9.2378684870       10.6645204171       -0.2831856155
 C        -9.8935277218        9.2804049841       -0.0037646408
 O        -9.5184572272        8.3535161112       -0.7269152500
 C       -11.1781855218        9.0020640958        0.8824173537
 C       -10.9031743268        8.2999298768        2.3490037690
 C       -11.0872149805        6.8230581019        2.3535020233
 O       -11.8900459258        6.0603183644        1.7929326881
 C        -9.9611640640        6.0406249581        3.2662570411
 C        -9.0139024385        5.5715136785        2.0965597742
 O        -7.9589025357        6.2508446084        1.9600868275
 C        -9.3451767532        4.4447493921        1.0796292158
 C        -8.6527200004        4.7661271814       -0.3099144772
 C        -9.2546858359        4.0234510253       -1.4676112943
 O       -10.3367250706        4.4327774962       -1.8682333164
 C        -8.8063959167        2.6788429990       -1.9971154924
 C        -9.8867384067        1.5857100410       -1.4023887897
 O       -10.9218822619        1.8686267460       -0.9329547847
 C        -9.4932825374        0.1379118778       -1.4518214062
 C        -8.8308542498       -0.2021041498       -0.1424123987
 C        -7.3971175888       -0.8850647710       -0.1501388757
 O        -6.6541447411       -1.0874174767       -1.0881162555
 C        -6.8773596191       -1.2898573650        1.3652783021
 C        -7.9491294653       -2.2855906008        2.2179794801
 O        -8.8038494060       -1.7671780550        2.8971744774
 C        -7.8116267360       -3.8431157054        2.0949229858
 C        -9.2300171077       -4.3504137289        2.3309317301
 C        -9.9842441994       -4.3266022095        0.9790040563
 O        -9.8358371113       -3.4375494858        0.1784600235
 C       -10.8268144712       -5.5979434087        0.6172052490
 C        -9.7066280692       -6.7164116560        0.3116882031
 O        -9.5629806013       -7.6820472518        0.9965864326
 C        -8.7790092483       -6.5700042137       -0.8816614119
 C       -11.7512467642       -6.1117429491        1.6926571936
 C       -11.5164466352       -5.3520865412       -0.6981792645
 C        -5.5863970439       -2.1810050258        1.1882930951
 C        -6.6485405294       -0.0296904850        2.2418784887
 C        -8.9614368796        2.7665397891       -3.4923702925
 C        -7.3630249464        2.2889561668       -1.6929551308
 C        -9.2662855425        6.9441579528        4.2322055566
 C       -10.7625254486        4.7165452438        3.8164542582
 C        -7.6752939345       10.4568504770       -0.4462669407
 C        -9.6387997268       11.6545623253        0.9109085022
 C       -12.3470858405        6.4281286971       -4.3009216608
 C       -13.2865842057        8.7907915615       -4.8748681509
 H       -15.7545666145        7.3893954286       -3.0852889444
 H       -15.1061619066        9.0233945050       -2.7591276128
 H       -15.5642655918        8.0305381077       -1.4050432942
 H       -12.0125601802       10.3370524772       -2.0792640937
 H       -11.8935750690       10.4389817599       -3.8256546854
 H        -9.9496345574       11.3160136876       -3.6864031724
 H        -9.2387332867        9.8347799551       -2.9814216524
 H       -11.9031196205        8.3930554108        0.3158141635
 H       -11.6550530645        9.9191759729        1.1856076965
 H       -11.6422788337        8.6660498134        2.9927917013
 H        -9.9322251051        8.5293464898        2.7267353978
 H       -10.4539217224        4.4408379238        0.8963502874
 H        -9.1979835409        3.4706961063        1.4882950892
 H        -7.5401491737        4.4770238380       -0.1862363339
 H        -8.6707903638        5.8705533324       -0.4838218855
 H        -8.8210655776        0.0474691535       -2.2961504523
 H       -10.3891435156       -0.3620466361       -1.6492865702
 H        -9.6118249929       -0.8661580767        0.2237822939
 H        -8.7499161942        0.6595679062        0.4249980210
 H        -7.0791323501       -4.0374323913        2.8653241625
 H        -7.4444178386       -4.0202634781        1.0976009652
 H        -9.6936881547       -4.0747655521        3.2164865121
 H        -8.9437291369       -5.4464886568        2.6370635841
 H        -9.1751436750       -5.8484558757       -1.5673446752
 H        -8.6677260818       -7.5639644225       -1.3507712620
 H        -7.8431773246       -6.1599642081       -0.6236030087
 H       -11.1886760067       -6.1172888274        2.6825062804
 H       -11.9607542297       -7.1416755391        1.4314827092
 H       -12.5998430207       -5.4730049305        1.5458670109
 H       -12.2072075379       -4.5095921802       -0.6058521502
 H       -12.1775580838       -6.1406994011       -1.0179166500
 H       -10.8252265595       -5.1493783871       -1.4535046130
 H        -5.7419472048       -3.1005247813        1.6488218534
 H        -4.6717675987       -1.7818110037        1.6839922563
 H        -5.3254978037       -2.1991262745        0.0779200172
 H        -6.1207250067       -0.3528756180        3.1464189678
 H        -7.7579100205        0.2166899536        2.4837546565
 H        -6.1066946549        0.7894672937        1.7080203190
 H        -9.8854153094        2.9446398759       -3.9767910990
 H        -8.8406640589        1.7188383975       -3.9569584345
 H        -8.1492970257        3.3436851589       -3.9723681908
 H        -6.6242309355        3.0551562049       -1.5599843291
 H        -6.9531684973        1.5857149030       -2.4220863043
 H        -7.2364626192        1.7262639704       -0.7708894120
 H        -9.9266151414        7.7866819343        4.5101647448
 H        -8.3106072698        7.3483642891        3.8186953988
 H        -8.9527246605        6.5301012926        5.1835502902
 H       -11.4428876264        4.7083363834        4.7916109455
 H       -10.0494928252        3.9278838868        4.1825239756
 H       -11.1978454153        4.5564774836        2.8850495733
 H        -7.0924863768       10.2421817168        0.3965206817
 H        -7.1887906403       11.3713609324       -0.7419598772
 H        -7.5606256773        9.7922055698       -1.3388578949
 H        -9.1887412843       12.6922446756        1.0637565126
 H        -9.5633233680       11.2334409788        1.8843689810
 H       -10.7132660617       11.7401511628        0.8687124831
 H       -11.3096195490        6.3185958709       -4.7563794071
 H       -13.0400915504        5.9757510960       -5.0731634012
 H       -12.3394734253        5.7518171908       -3.4280878384
 H       -12.7038798729        9.2560533551       -5.6544107637
 H       -13.7967542734        9.5846208652       -4.3064536670
 H       -14.1586303601        8.3324354131       -5.4273042199
 Na      -10.9307335057        6.4317777587       -1.1857947040
