117

 C       -15.0805109618        7.9337906465       -2.3352772840
 C       -13.5798187098        7.6654911394       -2.3672444652
 O       -13.1306925947        7.1517039359       -1.3379596149
 C       -12.7129108674        7.7804021567       -3.5512606464
 C       -11.2491679985        8.5181123594       -3.1649938905
 O       -10.2268714707        7.8532715587       -2.9693349693
 C       -11.1639251929       10.0276580771       -3.0311646604
 C        -9.6704415542       10.5125405719       -2.9987728245
 C        -9.5783823616       11.4646484337       -1.7687718366
 O        -9.6459457584       12.6733115201       -1.7062967246
 C        -9.2331654296       10.7163246322       -0.3185303386
 C        -9.8469721340        9.3012660942       -0.2032303896
 O        -9.4344720822        8.2976662774       -0.7545484329
 C       -11.0817925561        9.1936116931        0.7121613932
 C       -10.8611566043        8.4847000243        2.0945163372
 C       -11.1847056108        6.9251501178        2.2117608823
 O       -12.0346192041        6.3934595666        1.5722475222
 C       -10.1120409459        6.1118929821        2.9902992468
 C        -9.0604382208        5.6568300439        1.9516426927
 O        -7.9620420413        6.2031519692        1.8819339504
 C        -9.5017567938        4.6338642873        0.9608099643
 C        -8.5678018195        4.8909060616       -0.3345946592
 C        -9.3369207351        4.0262055227       -1.3987180630
 O       -10.3581245810        4.5588017407       -1.8738671564
 C        -8.8325951718        2.6140963453       -1.9886189900
 C        -9.8915575616        1.4857112047       -1.2740012139
 O       -10.9532757423        1.8297020767       -0.7330044686
 C        -9.2938651803        0.0069564373       -1.3578476733
 C        -8.9260949537       -0.5870479620        0.1413756542
 C        -7.4918213596       -1.0992249665        0.0630918928
 O        -6.8613724879       -0.9827763694       -0.9690108695
 C        -6.9344607452       -1.5384864583        1.4369828132
 C        -7.9949055553       -2.1821706047        2.2159936664
 O        -8.8374363158       -1.6431082952        2.8072826472
 C        -7.8673088115       -3.8076797862        2.2217240426
 C        -9.2838895204       -4.5073937904        2.3529710866
 C        -9.9845004394       -4.4269038812        0.9492291710
 O        -9.8198063011       -3.3329477446        0.3102597674
 C       -10.7825595871       -5.6069955671        0.5461481434
 C        -9.7302074928       -6.8341464090        0.2555650502
 O        -9.6556069764       -7.8059804585        1.0089884269
 C        -8.7042791527       -6.5578824197       -0.8599475017
 C       -11.7180903788       -5.9775746354        1.7821421186
 C       -11.5967600597       -5.2724635876       -0.7687196568
 C        -5.5438759351       -2.2564596962        1.0649561444
 C        -6.6147492544       -0.2038660643        2.2281437038
 C        -9.0399382137        2.6129450561       -3.5074239121
 C        -7.4490205842        2.1219141519       -1.5967642590
 C        -9.3632958053        6.9212707813        4.0933476750
 C       -10.7634750449        4.7855266455        3.7526259366
 C        -7.7252930073       10.5722685896       -0.5431960498
 C        -9.5518192999       11.7581396289        0.7301785529
 C       -12.2200515989        6.4715896395       -4.1412414033
 C       -13.3683327382        8.5335876664       -4.7260146737
 H       -15.5485448755        7.3023107498       -2.9974799696
 H       -15.3261541676        8.9723696334       -2.4698323205
 H       -15.4707289603        7.6724182901       -1.3668022988
 H       -11.6496739533       10.2113075745       -1.9870988807
 H       -11.8678310433       10.4893552888       -3.7282752944
 H        -9.4792541981       10.9482798784       -4.0244948938
 H        -9.0152990464        9.6224841751       -2.8334183654
 H       -11.8900797259        8.6463490238        0.2393247808
 H       -11.5398726899       10.1808700816        1.0669441904
 H       -11.6450308806        8.9502152255        2.6663847325
 H        -9.9081023536        8.6741647363        2.5619865807
 H       -10.5970486814        4.5743387675        0.6986987126
 H        -9.3398874046        3.6867286520        1.5182197382
 H        -7.5639741557        4.5345357660       -0.0895307225
 H        -8.5024918207        5.9443973468       -0.5584909144
 H        -8.3027037450        0.0695347286       -1.9470381247
 H       -10.0935282529       -0.4652303488       -2.0164196872
 H        -9.6657044881       -1.4152842277        0.2741609885
 H        -9.0116063052        0.2496438558        0.8046426730
 H        -7.2032009550       -3.9192048338        3.0369596749
 H        -7.2877664150       -4.0235800936        1.3299689599
 H        -9.9076159522       -3.8814730728        3.0609324242
 H        -9.0739075422       -5.3810762692        3.0132604389
 H        -8.9014335292       -5.4875145342       -1.1398591585
 H        -8.8472979910       -7.1891096869       -1.7037743658
 H        -7.5745961075       -6.5989098912       -0.5202713288
 H       -10.9688976331       -6.3675437796        2.5067194857
 H       -12.3361663831       -6.8621943642        1.4876032797
 H       -12.2195829783       -5.0753334100        1.9953794906
 H       -12.3813976961       -4.5673997649       -0.4099491617
 H       -12.1670141612       -6.0011747288       -1.2128829955
 H       -10.9410791319       -4.7624992180       -1.5210392720
 H        -5.2700511944       -3.0881468506        1.6729509500
 H        -4.8327987333       -1.4041649022        1.2923332779
 H        -5.3995326824       -2.3355274951        0.0030065349
 H        -5.8664843586       -0.3389046736        3.0491774367
 H        -7.5488283619        0.1050238293        2.6369636706
 H        -6.2939606737        0.4144504569        1.3317546180
 H       -10.0917997124        2.6820932397       -3.8781799083
 H        -8.8596577703        1.6767543135       -4.0093365451
 H        -8.3637865830        3.2983083247       -4.1310977266
 H        -6.7541299053        2.8831812248       -1.4068934203
 H        -6.9795683576        1.5044390732       -2.3515649285
 H        -7.3165169433        1.5095383827       -0.6552155200
 H        -9.9715916215        7.5913863262        4.7060926909
 H        -8.5455167777        7.4863457176        3.6575047202
 H        -8.8694450980        6.2522171065        4.7350538826
 H       -10.8349311086        4.9700843796        4.8789972473
 H        -9.8520674475        4.1628257170        3.9818117664
 H       -11.6220128944        4.3663253594        3.2106990112
 H        -7.1134073018       10.3191790563        0.3434322115
 H        -7.1521670738       11.4207056616       -0.8900242090
 H        -7.6849356206        9.8915539373       -1.3865151615
 H        -8.8217641967       12.6049574748        0.7988438738
 H        -9.4939906555       11.3662308896        1.7508251055
 H       -10.5810994578       12.0976101895        0.7426543347
 H       -11.3579844174        6.6740413496       -4.8015201713
 H       -12.9172574899        5.8990041731       -4.7573263239
 H       -11.8682753103        5.7726920862       -3.3307186751
 H       -12.5619617812        8.6965235708       -5.4722980325
 H       -13.7322949747        9.5506730287       -4.4693226342
 H       -14.2097044262        8.0947225875       -5.2928616799
 Na      -10.8918723136        6.5410515153       -1.0908324298
