117

 C       -15.0458280964        7.9402647623       -2.1999543407
 C       -13.3887300656        7.6892943280       -2.1388949469
 O       -12.8306916252        7.2099335782       -1.1927308236
 C       -12.5350802734        7.6100287156       -3.5530594101
 C       -11.1626574550        8.3287751609       -3.2979312730
 O       -10.1231128583        7.6177950717       -3.1037396310
 C       -11.0034016323        9.8475039358       -3.4847025494
 C        -9.6331549733       10.3747495682       -3.1415895872
 C        -9.5524747881       11.3507245389       -1.9436279036
 O        -9.8186757567       12.5177339229       -2.0998809353
 C        -8.8455114873       10.9110169527       -0.4570041732
 C        -9.7121512919        9.6203355998       -0.1890660987
 O        -9.1729339424        8.5622042303       -0.5558302441
 C       -11.0496593676        9.7341340284        0.4843884991
 C       -10.7674641624        9.1424928027        1.9703040681
 C       -11.0235842535        7.6405162427        1.8160556402
 O       -11.8541756267        7.0861548384        1.1195785362
 C       -10.1895764289        6.6159815345        2.7580090558
 C        -9.1715712932        5.9696381604        1.7869976513
 O        -8.0017661997        6.3411532587        1.8346717899
 C        -9.5746398529        4.7512136865        0.8819759086
 C        -8.7017515436        4.6939054244       -0.3498062860
 C        -9.3110809853        3.8600465938       -1.4495648170
 O       -10.2355790012        4.4575367469       -2.0208492769
 C        -8.9958937476        2.3509517260       -1.8763134597
 C        -9.8752305821        1.4202313697       -0.9806207788
 O       -10.7099614065        1.8752573665       -0.1869377798
 C        -9.7535369014       -0.1096776208       -1.0558411390
 C        -9.0624208856       -0.5825678585        0.2584195315
 C        -7.5778857664       -1.0450592540        0.1203372715
 O        -6.9365429777       -1.0646707562       -0.8913872240
 C        -6.9331582241       -1.6545559705        1.4270254077
 C        -8.0602458946       -2.3543553203        2.4693490897
 O        -9.0565777297       -1.8540526166        2.8844986868
 C        -7.8562514401       -3.8402478551        2.7506384467
 C        -9.2966131889       -4.6256609080        2.5299941481
 C        -9.8726453421       -4.5545289997        1.1073315220
 O        -9.6155645886       -3.5294587068        0.3785980456
 C       -10.8205408130       -5.7226774852        0.6687014331
 C        -9.8946993347       -6.8707221301        0.3065135188
 O       -10.0393758635       -8.0224383374        0.7955944537
 C        -8.8863745648       -6.5897929523       -0.6916251569
 C       -11.9808084396       -6.2977256633        1.6785668783
 C       -11.5546445302       -5.2765841465       -0.6256323555
 C        -5.7318834124       -2.5416287790        1.0857975485
 C        -6.3140409808       -0.3753428917        2.2811904372
 C        -9.2991363994        1.9460592154       -3.3076292466
 C        -7.4925033154        2.0272819041       -1.8341597532
 C        -9.5877663792        7.2667057915        4.0205969424
 C       -11.3638492260        5.4955477992        2.9818897751
 C        -7.4118166460       10.4829209591       -0.4125355661
 C        -9.0870922346       11.9255148420        0.5708896066
 C       -12.5930232761        6.0407818176       -3.8880034729
 C       -13.2928877663        8.4223331870       -4.5918703755
 H       -15.5707345688        7.2278249511       -2.8446710833
 H       -15.2441379864        9.0432677860       -2.4707631706
 H       -15.4769418418        7.6448963164       -1.1731428881
 H       -11.7826146411       10.2623355749       -2.8061062307
 H       -11.3553879279       10.0593063180       -4.4306662749
 H        -9.2315085749       10.8100586722       -4.0057674567
 H        -9.0379694623        9.5155524387       -2.7918076760
 H       -11.8908256713        9.2529729702        0.0237298446
 H       -11.2650100850       10.7973352563        0.5352618365
 H       -11.5569328193        9.3334784375        2.6749033474
 H        -9.7921355756        9.4049024148        2.4237039548
 H       -10.6314733264        4.9142501165        0.5156021425
 H        -9.4853021861        3.8400978156        1.3872673171
 H        -7.7289545203        4.3359514112        0.1668200743
 H        -8.5150644606        5.7026658871       -0.8077111439
 H        -9.1978143737       -0.4118361038       -1.8740482475
 H       -10.6981415623       -0.5120416471       -1.0843209423
 H        -9.5169788846       -1.4894959036        0.6641940989
 H        -8.9058199357        0.2153444972        0.8799679548
 H        -7.5157501956       -3.7321672851        3.8028174801
 H        -6.9425905641       -4.2331146447        2.2971874944
 H        -9.9368497656       -4.1583050176        3.1699170871
 H        -9.0397434883       -5.5978901530        2.9916835510
 H        -8.0203270121       -6.3964215684       -0.1065651895
 H        -9.0415496848       -5.7368821717       -1.2378587190
 H        -8.6925760297       -7.4730888535       -1.3135989986
 H       -11.5683660374       -7.3919338656        1.8063719678
 H       -12.8734808441       -6.3277525842        1.0675286002
 H       -12.0263347145       -5.6811220884        2.5012234536
 H       -12.3723637754       -4.5077971862       -0.5984559600
 H       -11.9894595436       -6.0955374583       -1.0776123745
 H       -10.7438441966       -4.9759762722       -1.2731616502
 H        -4.9750716934       -2.3576016874        1.7647531192
 H        -5.3715344945       -2.3192494064        0.0092399758
 H        -6.0096098934       -3.6046946498        1.1365229667
 H        -6.2082209607       -0.8282294195        3.2093345973
 H        -7.1077288768        0.2366108366        2.6336803269
 H        -5.4722589692        0.1048076855        1.7047363507
 H       -10.2945265369        2.0750038279       -3.6506731096
 H        -9.0278530326        0.9492699558       -3.6117429910
 H        -8.6480270564        2.4558126832       -4.0543451809
 H        -6.9112849843        2.5418460226       -2.5263413485
 H        -7.1535890073        0.9875266447       -1.9021452303
 H        -7.0566959172        2.4066636244       -0.8698200097
 H       -10.2252930758        6.7663304409        4.8255332098
 H        -9.7824299930        8.3853473619        4.0946498916
 H        -8.5566514616        6.9994570249        4.2509422629
 H       -12.2098289833        6.1537255375        3.4293548693
 H       -11.2219264997        4.6765044635        3.7358490068
 H       -11.7902278973        5.3061452232        2.0307409031
 H        -7.0981064485       10.2164907858        0.6105860196
 H        -6.8109296219       11.3060428867       -0.7243929119
 H        -7.0566638016        9.7926763841       -1.2009102318
 H        -8.4803840337       12.8921096955        0.4521951224
 H        -8.7049707036       11.6433225070        1.4985479206
 H       -10.0724664532       12.2465454617        0.8474765377
 H       -12.5478610732        5.9665671197       -4.9669803180
 H       -13.5061597846        5.5687350954       -3.5722716295
 H       -11.8112296150        5.4039155362       -3.4457327804
 H       -12.8668792559        8.7276100323       -5.5349335569
 H       -13.6152285858        9.3449756495       -4.1061341613
 H       -14.1920983629        7.8333000068       -4.8180525788
 Na      -10.6177501795        6.6091583577       -0.9064962589
