117

 C       -14.7897740924        7.9556261906       -2.1178616879
 C       -13.3644903857        7.6061402081       -2.2659634531
 O       -12.7911871481        7.3236628181       -1.2139683097
 C       -12.6773759013        7.6776820390       -3.5969636613
 C       -11.2217975330        8.1520294477       -3.3763925665
 O       -10.2614836943        7.4635061792       -3.0250711593
 C       -10.9895406657        9.6954821301       -3.5784835237
 C        -9.4951518833       10.2022672174       -3.0465964194
 C        -9.4340409198       11.3106021869       -1.9359315172
 O        -9.8617919249       12.4647688517       -2.0889330269
 C        -8.8284460478       10.9729432189       -0.5853036518
 C        -9.6207829404        9.5942443462       -0.1388477389
 O        -9.2815898576        8.5287614998       -0.5890069854
 C       -10.9330263186        9.9150007869        0.6095207647
 C       -10.8888427995        9.3152925435        2.0532196195
 C       -11.0310229047        7.8015879902        1.8157268026
 O       -11.7532141226        7.5152036802        0.8915066888
 C       -10.4082190713        6.6798258070        2.7491863028
 C        -9.1256977079        5.9317808109        1.8398798027
 O        -8.0818134460        6.4456814150        1.8033029731
 C        -9.5043039515        4.7662324367        0.9496886547
 C        -8.4841752897        4.5541053573       -0.3965414105
 C        -9.3077870434        3.7863891072       -1.5110167005
 O       -10.2456575281        4.4176504459       -2.0461715116
 C        -9.0143291097        2.2947603757       -1.8954788132
 C        -9.8326557546        1.4943838885       -0.8537748806
 O       -10.5461823600        2.1132049313       -0.0258496343
 C        -9.7332398706       -0.0421587597       -0.8565054947
 C        -8.9999281699       -0.5901009012        0.4758640129
 C        -7.5734587624       -1.1202422225        0.1595921097
 O        -6.9697836568       -1.0336719792       -0.9100249163
 C        -7.0368207368       -1.8749745693        1.4890692283
 C        -8.1895925939       -2.3587574484        2.3695670653
 O        -8.9647077938       -1.6729907559        2.9336666787
 C        -8.0263345320       -4.0101333738        2.7819885774
 C        -9.3859440559       -4.7569024402        2.6862169148
 C        -9.8824275678       -4.6399248679        1.2936532693
 O        -9.4724918578       -3.7978667780        0.4898443710
 C       -10.8023754078       -5.7745919655        0.6570824382
 C        -9.9337795127       -7.0266378497        0.2902723974
 O       -10.1413642151       -8.1235288777        0.7685068725
 C        -8.7929580098       -6.6214059514       -0.7347032749
 C       -11.9398201391       -6.2044059103        1.7583821503
 C       -11.5757706114       -5.2070382764       -0.6195400709
 C        -5.7910481493       -2.6380944631        1.0199815659
 C        -6.4849430278       -0.5526686719        2.3255977751
 C        -9.5022042287        1.9496318035       -3.3654094780
 C        -7.5677380475        1.8051473307       -1.8109564919
 C        -9.7002086886        7.2153113856        4.0413509724
 C       -11.5742694946        5.8974066917        3.2001981154
 C        -7.3216090632       10.5554815433       -0.6326324677
 C        -8.9247868941       12.1504788028        0.3246013165
 C       -12.6404535888        6.1591367480       -3.9259254638
 C       -13.3624387801        8.4358590539       -4.7723632947
 H       -15.4997230860        7.2151595698       -2.5443124159
 H       -14.9123740976        9.0039986617       -2.5307192098
 H       -14.9555434166        7.8728810405       -1.1060963453
 H       -11.9245317684       10.2185637579       -3.2023131440
 H       -11.0829496280        9.8238575499       -4.6681334900
 H        -9.1106600747       10.7623339052       -3.9917920652
 H        -8.8877832386        9.3407832000       -2.8103448727
 H       -11.7068465723        9.5109917833        0.0081848807
 H       -11.1445781229       11.0284352125        0.6894207780
 H       -11.8053303294        9.4660765861        2.5768044508
 H       -10.1044880864        9.7198228902        2.6199106792
 H       -10.5191653644        4.9944014822        0.5798375531
 H        -9.4790993298        3.8140946684        1.5011059156
 H        -7.5576317366        4.1969964667        0.0638240212
 H        -8.2760703109        5.5553464802       -0.9110046099
 H        -9.3103620917       -0.4054727388       -1.7781599883
 H       -10.7807943743       -0.5242902668       -0.7770183553
 H        -9.5107740074       -1.4825995168        0.7549638114
 H        -8.8368292162        0.2125062940        1.1466436415
 H        -7.6066262042       -3.8923600761        3.7425579493
 H        -7.2073961565       -4.5256415632        2.2707500909
 H       -10.0746981931       -4.2559877562        3.4246587085
 H        -9.1359343270       -5.7420351476        3.0384947495
 H        -7.8696116999       -6.9957926731       -0.3193484907
 H        -8.5936341238       -5.5682276647       -0.7140433255
 H        -8.9199173707       -7.0635429819       -1.7373243595
 H       -11.7567426990       -7.2589727624        1.9195634478
 H       -12.8324900972       -6.0466124205        1.1353991944
 H       -11.9008024422       -5.5035957007        2.6352862040
 H       -12.2404294003       -4.4168526626       -0.3166674571
 H       -12.1816482516       -6.0006484617       -0.9964720477
 H       -10.8983076598       -4.8268194165       -1.4083874017
 H        -4.9322285089       -2.5094884569        1.7635495843
 H        -5.5100155773       -2.1095024988        0.0816342393
 H        -5.9654409707       -3.6806663867        0.8936795318
 H        -6.4196137014       -0.9403177989        3.3431901205
 H        -7.2070641190        0.1637137803        2.5548442035
 H        -5.6077373745       -0.2286781140        1.7153165599
 H       -10.6289842896        2.1292811042       -3.3626000121
 H        -9.3383239104        0.9805967234       -3.7216307889
 H        -9.0753342509        2.4421878424       -4.2951272258
 H        -6.9338825167        2.1797984269       -2.5846877379
 H        -7.4371937991        0.7322444565       -1.9140560607
 H        -7.0278924835        2.0880308248       -0.8749725269
 H        -9.9548606644        6.6059007577        4.9482001635
 H       -10.0126839126        8.2803583016        4.1720208003
 H        -8.6030110283        7.1535508334        3.9353998303
 H       -12.3341728982        6.6018808083        3.5432844739
 H       -11.2081408141        5.3781612357        4.1764372010
 H       -12.1569139773        5.2424487753        2.3437891058
 H        -6.8945199629       10.2168526813        0.3365372289
 H        -6.7973497937       11.4182956737       -1.0081478925
 H        -7.0516750719        9.9381815882       -1.4572353167
 H        -8.2401911762       12.8554307389       -0.0230254767
 H        -8.4730556994       11.9354183196        1.3202344709
 H        -9.7705819097       12.7518603876        0.6169625128
 H       -12.4404469137        6.0637253230       -5.0243977283
 H       -13.5520206112        5.5735949970       -3.6861718877
 H       -11.8222463691        5.6118189673       -3.3616671800
 H       -12.6643860877        8.4549980437       -5.6336134945
 H       -13.6790578940        9.4731931528       -4.6438326285
 H       -14.1490767391        7.7503830335       -5.0975589528
 Na      -10.4059654237        6.5353902128       -1.0874991399
