117

 C       -14.6977784268        8.1939474020       -2.1966867992
 C       -13.3116461935        7.6704253204       -2.4832218525
 O       -12.7499781456        7.2977866355       -1.4858958795
 C       -12.6577603889        7.6833952412       -3.8806361709
 C       -11.2156018843        8.2741656960       -3.6389195297
 O       -10.3405801931        7.4401891164       -3.3304729741
 C       -10.7836406314        9.6667711591       -3.7030175983
 C        -9.4276982610        9.9508083795       -3.1353985573
 C        -9.3754855477       11.1377531807       -2.1668363034
 O       -10.0723428552       12.0756853999       -2.4472530960
 C        -8.5950294770       11.0631878613       -0.8809862601
 C        -9.5883043996        9.9985232040       -0.0468774814
 O        -9.3438710680        8.8183168700       -0.3487612018
 C       -10.7207318075       10.3993454075        0.9317345180
 C       -10.8049842746        9.4486153889        2.1492747728
 C       -10.9134260200        7.9629894409        1.8242984825
 O       -11.3984782544        7.5766489621        0.7638583973
 C       -10.4379011366        6.8960091139        2.7894117872
 C        -9.4304942368        6.0680300230        1.8755979512
 O        -8.3142339807        6.5738763929        1.7559349688
 C        -9.6168746317        4.7962858290        1.0036337886
 C        -8.6059478469        4.3448974656       -0.0619220991
 C        -9.2533349344        3.7997624673       -1.3250462402
 O        -9.9772817350        4.5173636561       -1.9931475193
 C        -9.0900518368        2.3066144728       -1.8101111448
 C        -9.7809362026        1.5357490625       -0.6516746071
 O       -10.2369086775        2.1731804182        0.2675863088
 C        -9.8878571179        0.0620995172       -0.6850827808
 C        -9.3335115882       -0.6005993164        0.5522682327
 C        -7.8620355613       -1.1963821019        0.3354374756
 O        -7.3064634627       -1.1093065607       -0.7103838081
 C        -7.0639232976       -1.9719116985        1.5962937462
 C        -8.0797020964       -2.7049539617        2.5609842987
 O        -8.9940099412       -1.9357695550        3.0857825645
 C        -8.0219075581       -4.1428838093        3.0372981795
 C        -9.4974599945       -4.7317981502        2.8351390126
 C        -9.8161992451       -4.7183380634        1.3699729628
 O        -9.2109938982       -4.0208876341        0.5345427200
 C       -10.8838360062       -5.7829294887        0.7697211243
 C        -9.9875548721       -7.0641809485        0.2250803317
 O       -10.2943910148       -8.1742386856        0.6843450457
 C        -8.8569396595       -6.9062022684       -0.6992868705
 C       -11.9427009605       -6.2914248805        1.8009992071
 C       -11.5067082659       -5.1644498609       -0.4574489030
 C        -5.9821142315       -2.9699920406        1.0613736886
 C        -6.3290458044       -0.7969022833        2.4133359777
 C        -9.8520829764        2.0937891213       -3.0613479268
 C        -7.5925345382        1.9140875884       -1.9689942534
 C        -9.6417680050        7.4298677335        4.0011191824
 C       -11.6353926993        5.9749361876        3.2282556616
 C        -7.2380733314       10.5662512165       -1.1618100389
 C        -8.5125288616       12.2342534776        0.0077367705
 C       -12.5601727630        6.2186140691       -4.2828876092
 C       -13.5300731136        8.4694584795       -4.8711638558
 H       -15.4296246762        7.4549333177       -2.3058096037
 H       -14.8832590596        9.1138812284       -2.7340947041
 H       -14.6620383489        8.2485714906       -1.0819323723
 H       -11.5935698859       10.1407090675       -3.1470124357
 H       -10.9173195886       10.0554836122       -4.7338004694
 H        -8.7572093797       10.2466927874       -3.8780603867
 H        -9.0915890898        8.9790304059       -2.6534434232
 H       -11.6708858641       10.3223031915        0.3100208470
 H       -10.7137308596       11.3872046033        1.3260636823
 H       -11.6393210289        9.8533487960        2.7811607258
 H        -9.8906595430        9.5310829232        2.8240752101
 H       -10.4999067016        4.9992221728        0.3923385082
 H        -9.7843998973        3.9516005050        1.6719933266
 H        -7.8822136596        3.6591932094        0.3748379456
 H        -8.1017362563        5.2149397611       -0.3211033992
 H        -9.3327875652       -0.2765411556       -1.6486507454
 H       -10.8420117108       -0.4425110793       -0.7157578597
 H        -9.9506649108       -1.5269461662        0.7439115552
 H        -9.1408139107        0.2075757398        1.3103896023
 H        -7.6153107109       -4.0099240812        4.0814433056
 H        -7.1413012131       -4.6525458330        2.5952266563
 H        -9.9915242324       -3.9321732960        3.3519210163
 H        -9.5620652241       -5.7026638780        3.3882368536
 H        -8.3332774144       -7.7898861447       -1.1547674130
 H        -8.1070881419       -6.4441759281       -0.0369609049
 H        -9.1732298891       -6.2154697878       -1.5422279482
 H       -11.7479263570       -7.3705574496        2.1587970783
 H       -12.7248220448       -6.1375836478        1.1017889861
 H       -12.0479792671       -5.5894972964        2.5549929667
 H       -12.0339996844       -4.2216105114       -0.0577187548
 H       -12.2641704919       -5.8736784265       -0.8153425261
 H       -10.8684124420       -4.7805404133       -1.2515055344
 H        -5.6996294480       -3.6362907598        1.7920724709
 H        -5.0903316296       -2.3533940778        0.8771108093
 H        -6.3078486035       -3.5742115785        0.1867708950
 H        -5.7403656668       -1.1266040035        3.2592503264
 H        -7.1130545236       -0.1661336888        2.8951376355
 H        -5.8059431320       -0.3059015616        1.5974826555
 H       -10.8817885527        2.3833400907       -3.0449226949
 H        -9.7623760130        1.0522198995       -3.5173323049
 H        -9.4617056167        2.6050601553       -3.9416090980
 H        -6.9100263979        2.5436981731       -2.5398089612
 H        -7.4361813394        0.9610532145       -2.4774968556
 H        -7.1641290350        1.8107512172       -0.9784534424
 H        -8.9675151848        6.6373083458        4.1737075247
 H       -10.2917710148        7.6391622833        4.8290207384
 H        -9.0192092816        8.2500691684        3.7651014993
 H       -12.4158318452        6.4732641896        3.8606669494
 H       -11.2455297304        5.0565921516        3.5940852193
 H       -12.0295174420        5.7305623996        2.3070645980
 H        -6.7633076433       10.4329529691       -0.2103792034
 H        -6.6659760306       11.1397811062       -1.9137456769
 H        -7.1714716944        9.5460377755       -1.6400981135
 H        -7.7166210258       13.0356963837       -0.2358126232
 H        -8.4805668591       12.1614659324        1.0770218943
 H        -9.4362656805       12.8444459716       -0.0741677546
 H       -11.8245451708        6.0610234285       -5.0648125231
 H       -13.5444083729        5.9673787573       -4.6900278042
 H       -12.4098272981        5.4932722279       -3.5032242241
 H       -13.1136010891        8.3097283755       -5.8713778114
 H       -13.3868638604        9.5493386703       -4.7119776164
 H       -14.5909804586        8.1313040042       -4.8695284821
 Na      -10.3640470816        6.4647859506       -1.1309646235
