117

 C       -14.4513018509        8.6062724625       -2.7407294780
 C       -13.2262975150        7.7299196823       -3.0686428419
 O       -12.7972993347        6.9825612229       -2.2619537446
 C       -12.6379002133        7.8473955947       -4.6350010347
 C       -11.2072992251        8.1425008736       -4.3383894210
 O       -10.4406014802        7.2965521116       -3.7043273385
 C       -10.6160961692        9.6482569582       -4.4432272322
 C        -9.3305531628        9.8752872221       -3.6987056402
 C        -9.5726476188       11.0028780847       -2.6100373565
 O       -10.6426154196       11.5169121963       -2.5824297901
 C        -8.4701834582       11.0237779796       -1.3279854474
 C        -9.0461450295       10.0836504243       -0.2554898485
 O        -9.1490796211        8.9094970567       -0.4649400029
 C        -9.7777280566       10.7028104641        0.9301243200
 C        -9.7470340020        9.7362268080        2.1788862910
 C       -10.7032866570        8.5961865466        1.9189503019
 O       -11.5776662655        8.4622608433        1.1049211580
 C       -10.2678160964        7.2316068621        2.7958449192
 C        -9.2786226633        6.4136539346        2.0173812505
 O        -8.1474052810        6.8088818988        1.8943692593
 C        -9.6790780356        4.9730739826        1.5834673303
 C        -8.6573322204        4.4645729720        0.5324107032
 C        -9.2467871342        3.9961166241       -0.7825983437
 O        -9.9891128174        4.7468612598       -1.4675437374
 C        -9.2956311587        2.4023193738       -1.1091364344
 C        -9.7978297192        1.4025306551        0.0692873572
 O        -9.8702253231        1.7519073146        1.2391085455
 C       -10.0668923254       -0.1026037384       -0.3591219847
 C        -9.4636114409       -1.1514376736        0.5685060582
 C        -7.9182684513       -1.5216840734        0.5448919543
 O        -7.2489266702       -1.1658102138       -0.4256071039
 C        -7.3224446241       -2.3436890642        1.7558453122
 C        -8.3087751270       -2.8809766092        2.9515791392
 O        -9.0613626400       -2.1480616957        3.4656692203
 C        -8.1279314625       -4.3567596262        3.4983802492
 C        -9.2881885933       -5.2869298950        2.9787242202
 C        -9.7275938788       -5.1079392693        1.5424286990
 O        -9.1888357311       -4.2711032875        0.8149860953
 C       -10.9188245406       -5.9783838879        0.9007499909
 C       -10.3509222432       -7.3189482281        0.3561000658
 O       -10.6680314849       -8.4153454372        0.7350526801
 C        -9.1726174241       -7.1086044888       -0.7880919230
 C       -12.1094897122       -6.5043012973        1.8178063372
 C       -11.4592292788       -5.1769177256       -0.2566410819
 C        -6.4160183413       -3.4576047496        1.1986614606
 C        -6.4895829644       -1.1587176215        2.4008319402
 C       -10.3802136962        2.2210670273       -2.2537037930
 C        -8.0414323111        1.8138262457       -1.6984971390
 C        -9.5438923844        7.7325330403        4.1550486813
 C       -11.5877975564        6.4699711139        3.1801925474
 C        -7.1131464751       10.5911359467       -1.8965937048
 C        -8.2113922605       12.3078455255       -0.7363270663
 C       -12.8883790860        6.3728971278       -5.1949672828
 C       -13.3931018321        8.9029438744       -5.5341823281
 H       -14.9571889030        9.1328924439       -3.5925083682
 H       -13.8821938021        9.3965329164       -2.1960575295
 H       -14.9962918220        8.0735802339       -2.0159260185
 H       -11.2812310540       10.4963906593       -4.0938719470
 H       -10.3437320318        9.7481662826       -5.4592014215
 H        -8.5056917536       10.2551129139       -4.2958730070
 H        -8.9439942366        9.0323219052       -3.1678736814
 H       -10.7413402888       11.0227384840        0.5798166814
 H        -9.2087863916       11.6226610502        1.2558779754
 H        -9.9988855284       10.0071065366        3.2496327078
 H        -8.7421322380        9.2204565691        2.2654199431
 H       -10.7316127866        4.8243628576        1.2021490683
 H        -9.5210273669        4.2810029977        2.3509223088
 H        -8.1422195445        3.6468517628        0.9856517935
 H        -7.9642608981        5.2206322670        0.2863677598
 H        -9.8767201885       -0.3754994412       -1.3460668103
 H       -11.1650799898       -0.3602611784       -0.3208599115
 H        -9.8865753631       -2.1967461291        0.2357775356
 H        -9.6321887816       -0.8987502616        1.6484186508
 H        -8.2256153163       -4.2296186383        4.6217478114
 H        -7.2193322755       -4.9869801059        3.4072260020
 H        -9.9957116881       -5.1829650892        3.7699691921
 H        -8.6847387137       -6.2086856535        2.8825768366
 H        -9.4496151392       -6.2265953550       -1.4025875276
 H        -9.2828248209       -7.8397682410       -1.6176816175
 H        -8.1374358681       -6.8228107388       -0.4784330370
 H       -11.5433353563       -7.1065678744        2.4565855565
 H       -12.7048210711       -7.0030477453        1.0808726383
 H       -12.6660557751       -5.6339163898        2.2388640860
 H       -11.8095297626       -4.1845996791        0.0225258695
 H       -12.0588468542       -5.7426658208       -0.9608317054
 H       -10.5012152702       -4.9448164187       -0.8081225712
 H        -5.4836092960       -3.5856263391        1.7878750122
 H        -6.1505157149       -3.2172061357        0.1651731015
 H        -6.8977471587       -4.3800995067        1.1816733099
 H        -6.1292025392       -1.5817838145        3.3423155028
 H        -7.1370127586       -0.3527016018        2.3544529577
 H        -5.5219519487       -0.9367437681        1.8995589437
 H       -11.4033575901        2.3516216818       -1.9269866128
 H       -10.4826726716        1.3106157518       -2.7703054075
 H       -10.4090144321        3.1413493654       -2.8932313809
 H        -7.7925638090        2.1723836408       -2.6689174059
 H        -8.0463658797        0.7240271385       -1.7216953616
 H        -7.1422440042        2.0166728045       -1.0566894835
 H        -9.9608519998        7.1052507090        4.9160123492
 H        -9.8824271264        8.7047845168        4.4241165651
 H        -8.4990415000        7.6559300834        4.0865106907
 H       -12.0029161348        7.2363297737        3.6873540026
 H       -11.4735131492        5.5826401715        3.7622221887
 H       -12.2040174104        5.9567545558        2.4301708437
 H        -6.2794875526       10.6712876090       -1.1481801910
 H        -6.7671859323       11.2931968933       -2.6509055484
 H        -7.0623898516        9.5381329210       -2.2508705654
 H        -7.8385917918       12.9216024864       -1.5077480823
 H        -7.3466894945       12.4249361617       -0.0089563794
 H        -8.9275414460       12.9997955576       -0.2433709892
 H       -12.8048800085        6.2899283180       -6.2959429935
 H       -13.8709190660        5.9634939394       -4.9264519900
 H       -12.0394408210        5.7323986676       -4.8166296844
 H       -12.9155857070        8.9089988368       -6.5401699891
 H       -13.4477055780        9.8611987465       -4.9884024469
 H       -14.4228166768        8.5367625138       -5.5274219175
 Na      -10.3813158075        7.1384248670       -1.4591841212
