117

 C       -14.4757632762        8.6688503925       -2.8219364016
 C       -13.2755445924        7.7834262082       -3.2014384271
 O       -12.6405549360        7.1093473250       -2.4400960314
 C       -12.7365360894        7.9290800562       -4.6649039426
 C       -11.1490538231        8.2205807032       -4.3663478945
 O       -10.5267691152        7.3587827745       -3.8178022987
 C       -10.5354127322        9.5713403334       -4.7419170488
 C        -9.3264736255        9.8219937153       -3.8238571605
 C        -9.6084867221       10.8881424551       -2.5738939784
 O       -10.7232896783       11.3464236218       -2.4499862135
 C        -8.4631194088       11.1214668323       -1.5785090269
 C        -9.1148526183       10.0130705283       -0.4826884364
 O        -9.0036769205        8.8445138259       -0.6599309733
 C        -9.5479468036       10.6962471727        0.8336528372
 C        -9.3467613349        9.6410376854        1.9834666846
 C       -10.5374553124        8.6521419492        1.9745921386
 O       -11.4254425654        8.6351536978        1.1608138867
 C       -10.3732395359        7.4508223912        3.0203631751
 C        -9.2435194120        6.4792727277        2.1255120630
 O        -8.1080017694        6.9502147412        1.9189346715
 C        -9.5959456904        5.0485879275        1.7518886285
 C        -8.5786463692        4.3863610405        0.5985232708
 C        -9.4961059876        3.8268191150       -0.6706882221
 O       -10.1377991919        4.6292837020       -1.3567972350
 C        -9.4125672183        2.3848078551       -1.0357154435
 C        -9.7178293851        1.3393691742        0.2482427789
 O        -9.7957779327        1.7764650245        1.3448311118
 C       -10.1213107390       -0.0615856338       -0.1344815003
 C        -9.5258001430       -1.2404867620        0.6634451165
 C        -7.9939105312       -1.5538168170        0.5995266059
 O        -7.1873890018       -1.2915544929       -0.2684754208
 C        -7.2694677945       -2.2811889231        1.8745496180
 C        -8.3339667151       -2.9072310581        2.8869968475
 O        -9.1415996493       -2.1594788891        3.3118485986
 C        -8.2512191533       -4.4223680335        3.3502533105
 C        -9.3666361280       -5.4957209243        3.0220557516
 C        -9.8340895237       -5.2247976333        1.6166435582
 O        -9.3886783567       -4.3803636369        0.9120913034
 C       -10.9185615261       -6.0133811818        0.8646146985
 C       -10.2380365624       -7.2938814905        0.2932735111
 O       -10.6216727840       -8.3892037105        0.7060088482
 C        -9.2186384556       -7.3531846797       -0.7813098962
 C       -12.1106378395       -6.4777462993        1.9692763740
 C       -11.5341711526       -5.0726708196       -0.2115617427
 C        -6.4196605507       -3.4215297799        1.1960898552
 C        -6.4276457108       -1.1071941217        2.4515682388
 C       -10.4689286851        2.2590634754       -2.1636030168
 C        -7.9846151873        1.9353539650       -1.6686410656
 C        -9.7416747703        7.9313557098        4.3194658492
 C       -11.6280280565        6.6927097555        3.2122479355
 C        -7.1350956570       10.4348856209       -1.9471124507
 C        -8.2837423538       12.4939942855       -0.9372853757
 C       -12.7187363857        6.4810199919       -5.3196786081
 C       -13.3608947105        8.9403711956       -5.6438971315
 H       -14.8630518422        9.0770112333       -3.7799482929
 H       -14.1647781477        9.4846323136       -2.1993612970
 H       -15.1716355168        7.9765724917       -2.1769669608
 H       -11.2370630554       10.2921846311       -4.3337264814
 H       -10.3903156549        9.7128084957       -5.8039853525
 H        -8.4162867831       10.2690113757       -4.2878852125
 H        -9.0166211372        8.9632851450       -3.3866915087
 H       -10.5087738718       11.1922034542        0.8109464562
 H        -8.7964258807       11.4697401221        1.1004235899
 H        -9.5133449456        9.9631663115        3.0603138297
 H        -8.3842286927        9.1193962439        1.9692988088
 H       -10.5916439532        4.9161788502        1.4224305210
 H        -9.4638225992        4.4060585922        2.6383537453
 H        -7.9900811449        3.6359147820        1.0836286636
 H        -7.9403792706        5.1296852022        0.1035392517
 H       -10.0364335089       -0.3022593016       -1.1323453822
 H       -11.1277554707       -0.2347010625        0.0471942639
 H       -10.0019434457       -2.0983612576        0.2397550645
 H        -9.6913309142       -1.1409928055        1.7343032236
 H        -8.1979116067       -4.3019713455        4.4435059505
 H        -7.3638724834       -4.9505770079        3.1063873705
 H       -10.0644006025       -5.2301527806        3.8526986429
 H        -8.9532742576       -6.4609729302        3.0492143913
 H        -9.1118527139       -6.3755469245       -1.1599002368
 H        -9.4990057247       -7.9245888201       -1.7159160970
 H        -8.2809863136       -7.5354729715       -0.3539459627
 H       -11.7161888324       -7.3484732699        2.4324054445
 H       -13.0509027480       -6.5033456962        1.4771747832
 H       -12.0806653873       -5.5265097097        2.5395506217
 H       -11.9772233384       -4.1740526088        0.1627961795
 H       -12.2188523543       -5.8003015537       -0.8173688512
 H       -10.7397684217       -4.7819626276       -0.9082524273
 H        -5.7477265160       -4.0825295727        1.8112079554
 H        -5.8712340583       -3.0517457463        0.4004093063
 H        -7.1817862267       -4.0445674352        0.7020848774
 H        -5.9777622017       -1.5420715628        3.3263158276
 H        -7.0396918901       -0.1984703273        2.4262172978
 H        -5.5723647416       -0.9235758450        1.8936708526
 H       -11.3864152274        2.5030489631       -1.6974856981
 H       -10.7966503164        1.2286919397       -2.4620418473
 H       -10.4713734950        3.0057567582       -2.8793164212
 H        -7.6928253073        2.4420495187       -2.6411770661
 H        -8.0015223144        0.8625486130       -1.8303801925
 H        -7.1694497252        2.0734622337       -1.0090403736
 H        -9.7852912787        7.1024077054        4.9701123026
 H       -10.2468842986        8.6937524925        4.8350355565
 H        -8.7077906284        8.1235399076        4.0063425511
 H       -12.2078369949        7.2701440287        4.0623500015
 H       -11.5160552426        5.6052029812        3.5142263400
 H       -12.2036123026        6.5029081180        2.3438326668
 H        -6.3634041696       10.6394427257       -1.1674222509
 H        -6.6155101951       11.0648439975       -2.7320538177
 H        -7.1422941308        9.3640776754       -2.1953965856
 H        -7.6114331655       13.1987000415       -1.3633085621
 H        -7.8049275697       12.4349352231        0.0588537897
 H        -9.1379770419       13.0803465433       -0.7381551884
 H       -12.3460779771        6.6222171383       -6.3216138969
 H       -13.7021758238        6.0555340040       -5.4672335311
 H       -12.0173995916        5.8436417790       -4.8685158071
 H       -13.0300960911        8.6922656179       -6.6552280883
 H       -13.1615822798        9.9392649718       -5.2771450431
 H       -14.4212408635        8.7849250410       -5.5181474884
 Na      -10.3638905900        6.9485670710       -1.4311371139
