117

 C        -9.1386076679       -5.0682506889        6.4436436560
 C        -8.1385800943       -4.4553403143        5.6085022292
 O        -8.4294045196       -4.1959938181        4.4338211855
 C        -6.6297387674       -4.0779313634        5.9647874025
 C        -6.4139716362       -2.5431785058        6.1911961157
 O        -5.8974408518       -2.1970517970        7.2633772301
 C        -6.6138933053       -1.4363695732        5.0930329755
 C        -6.2553344180        0.0056962976        5.5208532208
 C        -7.3746103060        1.0661457079        5.2079300631
 O        -8.5217145525        0.9244020726        4.8382695606
 C        -6.8468788609        2.6549739953        5.2216243176
 C        -6.8199331024        2.9681155040        3.6812337659
 O        -5.6933933010        2.8535126087        3.1296780625
 C        -8.1276821542        3.0290045665        2.8426792175
 C        -7.8421563144        2.9834983284        1.3211144320
 C        -8.9424952059        3.2849556590        0.3194481488
 O        -8.8446492107        4.3679957992       -0.3202930224
 C       -10.0312539941        2.2037359636        0.0507033650
 C       -11.2231621993        2.6799059665        1.0551276535
 O       -10.9007877712        3.2062977016        2.1045134184
 C       -12.7365166100        2.2759524209        0.9089446524
 C       -13.6509975679        3.5291255159        0.6347400572
 C       -13.0146637534        4.5756620840       -0.3187259346
 O       -11.8121562317        4.6641775277       -0.3124052115
 C       -13.9397810783        5.5103646882       -1.2277463250
 C       -13.4819211229        5.3922670356       -2.7396842088
 O       -12.3520663346        5.0900803932       -3.0157915767
 C       -14.5154476307        5.6280686646       -3.8836423867
 C       -13.8152462968        5.9801788754       -5.2227647164
 C       -13.5931780831        7.4540690678       -5.3964433993
 O       -14.2618208696        8.3061762831       -4.7760222411
 C       -12.5463259047        8.1138588623       -6.3807531456
 C       -11.2080636995        8.2741912079       -5.6283376586
 O       -10.4189320529        7.3635016613       -5.5958758369
 C       -10.9191302792        9.4794475996       -4.8323390030
 C        -9.6727067527        9.4926007147       -4.0089972205
 C        -9.4586722530        8.0144961732       -3.4655058446
 O       -10.4221637197        7.5613841771       -2.8962131094
 C        -8.0121107503        7.2520751080       -3.5539415673
 C        -8.1102215667        5.7776650038       -4.0754663937
 O        -9.1091157897        5.0754172619       -3.8727621295
 C        -6.9368075176        5.2380755531       -4.8816050477
 C        -7.0430079418        8.2318968777       -4.3153252769
 C        -7.4980368028        7.1131802904       -2.0640569686
 C       -12.4096490313        7.1717018009       -7.6415891308
 C       -13.0460420525        9.5052358223       -6.8137404077
 C       -15.4468555944        5.2954779719       -1.0323853785
 C       -13.5331543537        7.0122699582       -0.8023463394
 C       -10.4450096895        2.0913436366       -1.4406711963
 C        -9.5322383901        0.6895661165        0.4306680422
 C        -7.9305782797        3.4514217608        5.9815649810
 C        -5.4629588317        3.2448363547        5.5843713883
 C        -6.2619507739       -4.6781056650        7.2912873462
 C        -5.5958113206       -4.4832071739        4.9180794010
 H       -10.0445940684       -5.2980905747        5.8819970319
 H        -9.5377703885       -4.3469694602        7.1593643032
 H        -8.7964512897       -5.9595946290        6.9971781617
 H        -7.6784132907       -1.4717785119        4.8700793922
 H        -6.1068654224       -1.6754474391        4.1153963971
 H        -5.3012221738        0.4522884131        5.2740578708
 H        -6.1576807970       -0.0108498578        6.5949345203
 H        -8.6077624767        4.0001113281        2.9353340443
 H        -8.7357206948        2.2988567946        3.2631796422
 H        -7.3868012555        1.9807956904        1.2100538860
 H        -7.0588812885        3.7378535199        1.1309391762
 H       -12.9506549345        1.6221453483        1.8174861786
 H       -12.8642639966        1.6886101794       -0.0150230621
 H       -13.8144002070        4.0248159735        1.6708509663
 H       -14.6511911116        3.1966974187        0.3989749795
 H       -15.2655939534        6.3641126693       -3.5884981282
 H       -14.9387869773        4.6560900074       -3.7962494317
 H       -14.3209230479        5.5802607708       -6.0244587890
 H       -12.9034745150        5.4139601547       -5.2477877519
 H       -11.7983142189        9.6736410167       -4.2120108177
 H       -10.9241222168       10.3525955734       -5.4853823873
 H        -9.8132052487       10.2057234967       -3.1696057446
 H        -8.9145153565        9.9155262562       -4.5886208636
 H        -6.9226858545        5.7043519854       -5.9336555484
 H        -6.9841447363        4.1481159903       -4.8565673067
 H        -6.0202933762        5.5476857873       -4.4506518676
 H        -6.9123658296        9.1952002285       -3.8346255471
 H        -7.5057758154        8.5186736192       -5.2654641830
 H        -6.0539495892        7.7757325028       -4.5397441677
 H        -7.9852387719        6.3534283256       -1.5003275479
 H        -7.2170259695        8.0645903213       -1.5566184933
 H        -6.4301531453        6.8367646915       -2.1937571295
 H       -12.2241330678        6.1225490810       -7.4065159834
 H       -11.5545945666        7.4944173817       -8.2257839928
 H       -13.3026857344        7.2394306221       -8.3415211396
 H       -12.1673252590       10.0345922769       -7.3064444928
 H       -13.1353543743        9.9908631908       -5.8233262841
 H       -14.0579450134        9.5195509044       -7.2775730173
 H       -15.7593117369        5.3772275579       -0.0141730557
 H       -15.6472798175        4.3445603418       -1.3984126396
 H       -16.0949967174        6.0633889848       -1.5196437122
 H       -13.6122530484        7.2443003015        0.3424292346
 H       -14.1970140334        7.7453623244       -1.3703429426
 H       -12.5173047202        7.1315491890       -1.2335290335
 H       -10.8122707163        1.1918409934       -1.6688145368
 H        -9.5417117228        2.2927034176       -2.0106256929
 H       -11.2063121913        2.8016115174       -1.7322721108
 H        -9.3693326468        0.6154566782        1.5066988423
 H        -8.5572634655        0.5727870269       -0.1009358350
 H       -10.2505114230        0.0473427503        0.0911203307
 H        -7.5918123076        3.5744385028        7.0341752643
 H        -8.8787714327        2.8481648548        5.9811658136
 H        -8.1326551634        4.4092264222        5.5151051841
 H        -5.2380705315        2.9549611701        6.6178482779
 H        -5.5605828527        4.3903125937        5.5320999548
 H        -4.7804524790        2.8413590621        4.8408902412
 H        -6.9892759126       -4.3429329322        8.0232341924
 H        -5.2742578923       -4.4303958831        7.5020624149
 H        -6.3179419938       -5.7621449146        7.2524984016
 H        -5.7942445627       -4.3060699491        3.8637407521
 H        -5.4346058942       -5.5765646364        4.9298283441
 H        -4.6732360586       -3.9558347365        5.1823836083
 Na      -10.2503780459        5.4547676934       -1.8524030798
