117

 C       -14.5089713528        8.6417602419       -2.8541512417
 C       -13.2550264406        7.9007321828       -3.3683506056
 O       -12.6743792685        7.2583567683       -2.4307555305
 C       -12.6144667815        7.9527764562       -4.8069193186
 C       -11.0658701487        8.3234002773       -4.4476309228
 O       -10.4847546054        7.4340073495       -3.9392725011
 C       -10.5084063422        9.6007711268       -4.8114039368
 C        -9.3407312149        9.9771013007       -3.9153674384
 C        -9.6249773301       10.7735914063       -2.7157574454
 O       -10.7161473462       11.2178841539       -2.4061405054
 C        -8.4611904947       10.9920995119       -1.6440667165
 C        -8.8765099908       10.0530295955       -0.5377095350
 O        -9.0270899475        8.8404673790       -0.8813461036
 C        -9.3109490106       10.5887367038        0.7875178707
 C        -9.1647061276        9.6143013146        1.9173483516
 C       -10.3501165524        8.5974813596        1.9891287774
 O       -11.2697383218        8.7789781584        1.2074762219
 C       -10.2563252183        7.3717142598        3.0406069430
 C        -9.1425331628        6.4908305976        2.2954592090
 O        -8.1317991186        7.0922722422        1.9756356097
 C        -9.5895573544        5.0982443753        1.8168188261
 C        -8.6996038847        4.4488031429        0.7003242419
 C        -9.5224597686        3.8035652526       -0.4537812305
 O       -10.1770834298        4.5795407049       -1.0705496736
 C        -9.5795601886        2.3172505923       -0.8903599552
 C        -9.6957722788        1.3628427961        0.2519292543
 O        -9.6372050072        1.8479413353        1.3743629741
 C       -10.0699865959       -0.0709832875       -0.0965608851
 C        -9.5162705907       -1.3178186943        0.8341505586
 C        -8.0088246032       -1.5559082669        0.6983663938
 O        -7.3937699658       -1.2456872523       -0.2728239653
 C        -7.3318836943       -2.3644632916        1.8401294643
 C        -8.3768468985       -3.0032885581        2.7891841275
 O        -9.2919395274       -2.2345209027        3.3078258728
 C        -8.2151938757       -4.3981038769        3.3381128869
 C        -9.4346662068       -5.4482944159        2.9999858877
 C        -9.8760984314       -5.2022220555        1.5656249641
 O        -9.3259376931       -4.2581601926        1.0154893224
 C       -10.9994153991       -6.0506083805        0.8559377337
 C       -10.3346111281       -7.4517420818        0.2662242770
 O       -10.6158012665       -8.5145966840        0.7807968058
 C        -9.2315937222       -7.3687150339       -0.8317868406
 C       -12.0985543305       -6.4210806180        2.0416193518
 C       -11.7263388321       -5.1942639309       -0.1701995607
 C        -6.3124894748       -3.3776180241        1.2351740809
 C        -6.4249465265       -1.2920159544        2.6233957461
 C       -10.5768516267        2.0698776802       -2.0656590273
 C        -8.0844120288        2.1279534610       -1.5176501132
 C        -9.7900187474        8.0020628160        4.4165429018
 C       -11.7489963632        6.8571540768        3.2279766567
 C        -7.1078452903       10.3752482007       -2.0413199428
 C        -8.4201201447       12.5390752370       -1.4146105522
 C       -12.6214317871        6.5601596116       -5.4394902232
 C       -13.3375116828        8.9717412747       -5.7109372766
 H       -15.0177489946        9.0041843167       -3.7285778795
 H       -14.3087460138        9.4414215929       -2.1001899249
 H       -15.0275395785        7.8301586330       -2.3083101904
 H       -11.2482282633       10.3358955581       -4.9316338113
 H       -10.0705853372        9.3492529766       -5.8203354227
 H        -8.4571248374       10.3790846787       -4.3852139558
 H        -9.0058740296        9.0242182194       -3.4133375215
 H       -10.4264345907       10.6640671691        0.5988387406
 H        -8.9686622019       11.5437802208        1.0921024545
 H        -9.0995538082       10.0914376172        2.8657651477
 H        -8.2783167167        9.0155741779        1.8078172964
 H       -10.5793220223        5.1726876623        1.4424156602
 H        -9.6394274405        4.3559099297        2.6655231856
 H        -8.0870501858        3.6653686820        1.1924382131
 H        -8.0467340770        5.2265369397        0.2012212988
 H        -9.8121293273       -0.3268874495       -1.1614300716
 H       -11.0810708751       -0.2592351084       -0.0122889238
 H        -9.9922934099       -2.2237502978        0.5601638689
 H        -9.6968665998       -1.1413259959        1.8874937625
 H        -7.8554701187       -4.3449670976        4.3348230036
 H        -7.4596700689       -4.8396502721        2.7187324643
 H       -10.1853154161       -4.9710962400        3.6359527556
 H        -9.2475097775       -6.5202001046        3.2097322359
 H        -8.6967847857       -6.4245712824       -1.0346326027
 H        -9.5017860055       -7.7357498580       -1.7602813890
 H        -8.5012833954       -7.9613569134       -0.3353584685
 H       -11.8673681657       -7.5083706282        2.3496168232
 H       -13.0597527019       -6.2410454148        1.5875336144
 H       -11.9705893993       -5.6185574899        2.7032294811
 H       -12.1035222052       -4.2691997439        0.3344719812
 H       -12.5215179644       -5.7675370284       -0.6138864857
 H       -11.0275795733       -4.8968695944       -0.9395314191
 H        -5.8669402772       -4.0422124967        1.9433046818
 H        -5.4669570749       -2.8097872939        0.7714285910
 H        -6.7074225080       -3.9863123828        0.3577749781
 H        -5.7503156863       -1.7424059931        3.2847930740
 H        -7.1288225246       -0.4527443871        2.8475447212
 H        -5.7545085465       -0.8161729480        1.8994210918
 H       -11.6282676651        2.3848133728       -1.8331579075
 H       -10.7862707622        1.0176384909       -2.1254646038
 H       -10.3521748284        2.6493282236       -2.9808362830
 H        -7.9147676826        2.9076836549       -2.2927527910
 H        -7.7786829233        1.1457863445       -1.9113386378
 H        -7.3814262525        2.3666860579       -0.7304526573
 H        -9.5527578045        7.1435319408        5.0462431137
 H       -10.6741777921        8.3773570445        4.9403248824
 H        -8.9504370637        8.6834192419        4.2734563237
 H       -12.3199383291        7.3736326760        4.0868615796
 H       -11.7278246810        5.7036467419        3.3763604031
 H       -12.2640038891        6.8244403962        2.2220705877
 H        -6.2908557681       10.6087288496       -1.3658044781
 H        -6.7052240711       11.0019724063       -2.8837249418
 H        -7.1001699019        9.2936235319       -2.2871400798
 H        -7.9004783917       13.1961109204       -2.1345496491
 H        -7.9676599317       12.8450997086       -0.5546063640
 H        -9.3866846196       12.9559545917       -1.3041182677
 H       -11.9952965025        6.5412262778       -6.2890629326
 H       -13.5850339968        6.4376923394       -5.8530351837
 H       -12.3027597793        5.7835508334       -4.8080016365
 H       -12.9038578209        8.8358212616       -6.6735987399
 H       -13.2016526063        9.9454934386       -5.2433139236
 H       -14.3904383273        8.7048308554       -5.7008761212
 Na      -10.3936264704        6.8026828954       -1.3998537763
