117

 C       -14.5788790965        8.5062755079       -3.2659828032
 C       -13.1480847964        7.9968178178       -3.3572306716
 O       -12.6462663825        7.4554475018       -2.4636978636
 C       -12.4830013257        8.0311378292       -4.7732160737
 C       -11.0621281932        8.3826827420       -4.5261677694
 O       -10.2322979582        7.6336610938       -3.9581941156
 C       -10.4986846981        9.6677067108       -5.2180234686
 C        -9.1811917964       10.0921833268       -4.4550842782
 C        -9.5073189424       10.6098866201       -3.0387686177
 O       -10.6644301037       10.7688894417       -2.7611629317
 C        -8.4497441004       10.8547019863       -2.0055085393
 C        -8.8176352555        9.9544063677       -0.7039478296
 O        -9.0961930510        8.7973971897       -0.8679947592
 C        -9.0218356982       10.7148838897        0.6007533514
 C        -8.9612541357        9.7412936319        1.9077911902
 C       -10.2639118166        8.7459969241        2.0572885950
 O       -11.1007096325        8.8573689080        1.2018876118
 C       -10.2392161714        7.5550745283        3.1063770922
 C        -9.1693364001        6.4611421793        2.4207293103
 O        -7.9562441977        6.6156202139        2.2883570506
 C        -9.8435226450        5.1291417337        1.8855710633
 C        -8.9774341847        4.3753910704        0.9210129501
 C        -9.7693021960        3.9119302867       -0.2608988275
 O       -10.5946672132        4.6930747626       -0.8031055489
 C        -9.5088583164        2.4848693456       -0.7340538825
 C        -9.5934298910        1.3142517725        0.4634292811
 O        -9.3937209157        1.4963418220        1.6343497130
 C        -9.9399314501       -0.0386075181       -0.0051578578
 C        -9.5687315245       -0.9406770322        1.1296027379
 C        -8.1839435552       -1.5548494074        0.8820209661
 O        -7.5844373442       -1.2303018135       -0.1482192526
 C        -7.3465679238       -2.3827797540        2.0011025895
 C        -8.2979676367       -3.2255681436        2.8485271288
 O        -9.1930169094       -2.6710251445        3.3660390477
 C        -8.0951519928       -4.7695560324        3.2014974153
 C        -9.5472780333       -5.2415399758        2.9831837830
 C        -9.9868689092       -5.1333411079        1.5251070906
 O        -9.5072067574       -4.3644713368        0.6954232530
 C       -11.0760277245       -6.1384316668        1.0593026808
 C       -10.3682924384       -7.3819610707        0.4226561642
 O       -10.7032973613       -8.4269185072        0.9299348835
 C        -9.4815764658       -7.2241892413       -0.7029086308
 C       -12.0540161881       -6.5805093715        2.2214875279
 C       -11.7050685440       -5.5351509793       -0.2501810724
 C        -6.3163979419       -3.2462927570        1.1571498167
 C        -6.7100929455       -1.4465023954        3.0394969154
 C       -10.5801415416        2.2703751603       -1.8001677866
 C        -8.1100860024        2.3407922294       -1.2749901411
 C        -9.6521469945        7.8121284994        4.5267565718
 C       -11.5810291449        6.9466846546        3.0814397830
 C        -7.0562803779       10.5919164829       -2.5599999286
 C        -8.4179585849       12.4500856782       -1.8246651951
 C       -12.6437913520        6.6178722862       -5.4252657547
 C       -13.1335917646        9.1034694466       -5.6467522696
 H       -15.0725759297        8.5865355410       -4.2132354063
 H       -14.3562845005        9.4301678156       -2.8485868212
 H       -15.0329702643        8.0092078746       -2.3973566356
 H       -11.2856188853       10.5100494763       -5.1544683380
 H       -10.2047131766        9.5207725711       -6.2506321781
 H        -8.7204882424       10.9614593628       -5.0497126801
 H        -8.4014204219        9.3296785515       -4.4343284853
 H        -9.9605837986       11.2374856349        0.6212276050
 H        -8.2301032542       11.4760373467        0.8672713467
 H        -8.9255988704       10.4791135325        2.7541368105
 H        -8.1096124660        9.0579767824        1.9413419755
 H       -10.8783589578        5.1245967670        1.4080537292
 H        -9.9462880158        4.5803887921        2.8206233918
 H        -8.4520879035        3.5128965779        1.3303518461
 H        -8.2770457916        5.1396856786        0.5859537483
 H        -9.5498788238       -0.3286274631       -0.9893715472
 H       -11.1061450925       -0.2497100226       -0.0518449316
 H       -10.3405545415       -1.8014968625        1.2712532600
 H        -9.6638995519       -0.3472190752        2.1356961419
 H        -8.1143575477       -4.7211682861        4.3429667545
 H        -7.3432581703       -5.5254628439        2.8590470461
 H       -10.0709449477       -4.5000108258        3.6770390432
 H        -9.6356759104       -6.3131111985        3.2777095230
 H        -8.8095502308       -6.3912392650       -0.4994508155
 H       -10.1949128599       -6.9191832154       -1.5976568935
 H        -8.8816335359       -8.1428678944       -0.9876336361
 H       -11.5449155394       -7.3307471099        2.7182852516
 H       -12.8374617715       -7.0958295107        1.6460069290
 H       -12.4931937797       -5.5843445698        2.6369114524
 H       -12.1976002438       -4.7061775489        0.1282041191
 H       -12.5613140478       -6.1755562199       -0.6075758645
 H       -11.0332403507       -5.2675394803       -1.0453848852
 H        -5.4870626010       -3.7823507713        1.7496916934
 H        -5.8754852190       -2.7213802127        0.3557243662
 H        -6.8665700688       -4.0410833883        0.6807027636
 H        -5.8252691605       -2.0706096893        3.4492787168
 H        -7.4741639263       -1.0117484488        3.6786228914
 H        -6.2233430384       -0.5852688940        2.5647100482
 H       -11.6382309080        2.1581850605       -1.4285592488
 H       -10.4975176778        1.2497930333       -2.3039604444
 H       -10.5403545190        3.0965746284       -2.5022772758
 H        -7.8302909448        2.9906354365       -2.1116540670
 H        -8.1199421763        1.3159690137       -1.6480216558
 H        -7.2735397978        2.3807103651       -0.5554977679
 H        -9.6308795309        6.8905172862        5.1186364735
 H       -10.2190458414        8.5115744116        5.1429741834
 H        -8.6601252168        8.2015355167        4.2265225327
 H       -12.3356524926        7.7167307808        3.3415241442
 H       -11.8441337752        6.0779767109        3.6654674323
 H       -11.7976902967        6.7333037213        2.0588626802
 H        -6.3335799719       11.0297138717       -1.8365966119
 H        -6.6619556500       11.0560602092       -3.4428847616
 H        -6.9366816867        9.5218838984       -2.5547171911
 H        -8.5918254030       12.9988001996       -2.7191195766
 H        -7.4232077712       12.9384759028       -1.5132642017
 H        -9.1409682222       12.9097778790       -1.1254748649
 H       -11.9857357282        6.4022614564       -6.3001355963
 H       -13.6808527191        6.6283833759       -5.8348264415
 H       -12.4832063400        5.8455257423       -4.6549872807
 H       -12.4171672081        9.3253981731       -6.4506069017
 H       -13.4518335326        9.9479976210       -5.0436572790
 H       -13.9248883841        8.4940937007       -6.0652744687
 Na      -10.5572137198        7.0092507220       -1.5362320757
