117

 C       -14.6483684433        8.3690456930       -3.7504455704
 C       -13.1368364665        8.1413954521       -3.6061703585
 O       -12.4735818855        8.4339123960       -2.6043389048
 C       -12.4003930608        7.7845697502       -4.9979721831
 C       -10.8213957738        7.9963045350       -4.8193554417
 O       -10.1236617217        7.4999514832       -4.0192716146
 C       -10.2162591973        9.3666378270       -5.6362076201
 C        -9.1005700621        9.9905984616       -4.9058672583
 C        -9.4705432721       10.3161444959       -3.4509004277
 O       -10.5431390777       10.1191499281       -3.0125624909
 C        -8.3224211884       10.7796590002       -2.4160824869
 C        -8.4825777214        9.7637110709       -1.1722915721
 O        -8.7986952124        8.5704565769       -1.2392341558
 C        -8.1412511561       10.3023461103        0.1804011597
 C        -8.1696475746        9.1767762700        1.2964330142
 C        -9.6108491329        8.7930997479        1.6168679945
 O       -10.4958387763        8.6452562524        0.7700158106
 C        -9.9431359920        8.3931662307        3.1936515162
 C        -9.2848219024        6.8839632490        2.8673800834
 O        -8.2640779340        6.5245874032        3.2704721171
 C       -10.1424366480        5.9325738956        1.8831263421
 C        -9.1590840145        4.9307090192        1.1550306740
 C        -9.9289165474        4.1848274403        0.0020583458
 O       -10.4314355098        4.7726397173       -0.9411250535
 C        -9.7807649004        2.6466036654       -0.2818643187
 C        -9.7121168261        1.6208064046        0.9251373424
 O        -9.0228654936        2.0205837685        1.8630001462
 C       -10.0972865081        0.1469903113        0.6564665577
 C        -9.6630115638       -0.9442439192        1.6175740363
 C        -8.2753196396       -1.4471837575        1.3535810411
 O        -7.7529110203       -1.1016382192        0.2754773917
 C        -7.3978118765       -2.3076370690        2.4160787874
 C        -8.3400486419       -3.4948501670        2.9350983229
 O        -9.2365686973       -3.2169679283        3.8575108501
 C        -8.2556984145       -4.8829117758        2.2708211487
 C        -9.5546178366       -5.6162216838        2.6747796776
 C       -10.5434468722       -5.3951763619        1.4451709719
 O       -10.5680296137       -4.2750263778        0.9521213736
 C       -11.5133249771       -6.5247407091        1.0634162646
 C       -10.7092215887       -7.8071256689        0.5350102215
 O       -10.5550730940       -8.7293485317        1.2739529152
 C        -9.9835038281       -7.8544193600       -0.7838340687
 C       -12.3727625667       -6.7226953939        2.4289112289
 C       -12.5451118458       -6.0814281816       -0.0731937171
 C        -6.1005154062       -2.6646730567        1.7007025856
 C        -6.9749047948       -1.3694493865        3.6128974325
 C       -10.7347052859        2.1380813412       -1.5077379532
 C        -8.2697207463        2.4814071843       -0.9140575263
 C        -9.0315732301        9.1019370134        4.1361972830
 C       -11.3947222994        8.3930229628        3.3529010308
 C        -6.8699201320       10.3954919830       -3.0524948884
 C        -8.4578953485       12.2120883565       -2.0037217473
 C       -12.7033164659        6.3283941755       -5.3710299228
 C       -12.9296264238        8.6770536154       -6.2329537894
 H       -15.0725492526        7.3724282923       -3.5368056207
 H       -14.8376004766        8.8578662114       -4.7316628833
 H       -14.9678681395        9.0311749864       -2.9749338572
 H       -11.0035084037       10.0649474752       -5.7760933576
 H        -9.9631893225        8.9931788839       -6.6454075627
 H        -8.9663013642       10.9143411092       -5.3352068934
 H        -8.1134647882        9.4741978031       -5.0414201985
 H        -8.8403041146       11.1152803948        0.5095156128
 H        -7.2126093781       10.8155283483        0.1215221377
 H        -7.7580675580        9.4670252979        2.2535919107
 H        -7.7685293868        8.1969720874        0.8330833829
 H       -10.6543888078        6.4643512471        1.0966716116
 H       -10.9914661927        5.4975046485        2.4349281844
 H        -8.7744132961        4.2177008003        1.8585550730
 H        -8.3148424304        5.4956212756        0.7933122990
 H        -9.5611300795       -0.0966836532       -0.2129663762
 H       -11.1010617321       -0.0218952549        0.4990693279
 H       -10.4173271852       -1.7166968662        1.5146758005
 H        -9.9575907407       -0.7360485966        2.5924860100
 H        -7.3749511761       -5.2564126768        2.7850476093
 H        -8.0930811067       -4.9033471885        1.1636737821
 H       -10.0388040277       -5.1630441530        3.5417162246
 H        -9.6042395973       -6.7262139009        2.8400824152
 H        -8.9133180600       -7.6903667658       -0.4930921128
 H       -10.1307357177       -7.1026350364       -1.5969323166
 H       -10.1786600191       -8.7431856814       -1.4323185930
 H       -11.6952790917       -7.1653055304        3.1740858033
 H       -13.2795627956       -7.2588883354        2.2152742723
 H       -12.4597877094       -5.6511740398        2.5294158932
 H       -13.4267351765       -5.5930467371        0.4506033458
 H       -12.8779350879       -6.9759528653       -0.4782785917
 H       -12.1647873760       -5.4004868298       -0.8858190377
 H        -5.3056097367       -2.9952091066        2.3160384402
 H        -5.6913841328       -1.7459316580        1.2115727206
 H        -6.1004632144       -3.4222273414        0.9864060983
 H        -6.1795342070       -1.7542900801        4.2023601262
 H        -7.7008096947       -1.4156830186        4.3296643681
 H        -6.7625057017       -0.3131120204        3.3045346467
 H       -11.7465830156        2.0483876145       -1.1996532426
 H       -10.3453439946        1.1902733970       -1.6306421106
 H       -10.6210330670        2.5283669969       -2.5355594480
 H        -8.1170536446        3.0031702277       -1.8063590815
 H        -8.0715403782        1.4220121899       -1.0719370051
 H        -7.5619090655        2.8999515609       -0.1414887337
 H        -9.3461452414        8.8994181192        5.1508732390
 H        -8.9360392327       10.1391010786        3.8277438984
 H        -8.0859004486        8.6563783811        4.1314799379
 H       -12.0654664104        9.1854877073        3.2948637370
 H       -11.7758936799        7.9495415457        4.3195255405
 H       -11.7227780839        7.7866043364        2.4543294066
 H        -5.9587754287       10.5411053891       -2.4654178963
 H        -6.7884504052       10.7130083813       -4.1085481527
 H        -6.8020779388        9.2654441098       -3.0541440762
 H        -7.9937554616       12.9309509117       -2.6705329253
 H        -7.9981980005       12.3812044950       -1.0214836735
 H        -9.4396922082       12.7308651750       -1.9875473258
 H       -11.7927837003        5.9599043364       -5.8703913398
 H       -13.6199668543        6.2115013952       -5.9616219578
 H       -13.0204515425        5.6786517922       -4.5001344936
 H       -12.5620829784        8.3097165538       -7.1746147379
 H       -12.7204138974        9.7408742023       -6.0974350459
 H       -13.9755190019        8.3707653183       -6.1265789244
 Na      -10.7066749085        7.0584822673       -1.5962477007
