117

 C       -14.6848540249        8.4758709624       -3.7210202854
 C       -13.1555311715        8.0986989947       -3.7377889347
 O       -12.4458823271        8.0455904150       -2.7323432296
 C       -12.5329052477        7.7027632852       -5.1291698400
 C       -10.9736332921        7.9890361093       -4.9393429599
 O       -10.2921792027        7.1748548194       -4.1932984600
 C       -10.2599852388        9.1004073364       -5.5855807840
 C        -8.9711690505        9.4477247349       -4.7768717383
 C        -9.2883007072       10.2230469089       -3.5079107598
 O       -10.4887382441       10.4276402769       -3.2105825157
 C        -8.0281324035       10.6867433530       -2.5881537506
 C        -8.1986378086        9.6827675789       -1.3697988050
 O        -8.6320214485        8.5570100354       -1.5591663627
 C        -7.7866333640       10.1021795134        0.0294482178
 C        -8.0010861926        9.2065404700        1.1919155447
 C        -9.5680461687        8.7623877634        1.4408070305
 O       -10.3212180455        8.6483549264        0.5081947610
 C        -9.8768457329        8.3530707407        2.8346556720
 C        -9.5183050040        6.7117145352        2.9479542744
 O        -8.4835396667        6.3025757777        3.5582417929
 C       -10.1220501936        5.8968721689        1.8820018446
 C        -9.1773939503        4.8775475585        1.3600021440
 C        -9.8041447815        4.2912153690        0.0910322285
 O       -10.4751721425        5.0265626631       -0.6719710612
 C        -9.5342924187        2.8598264639       -0.3307354997
 C        -9.5642582196        1.8176630228        1.0257717679
 O        -9.3036017289        2.1092878540        2.1785975527
 C       -10.2127477774        0.4446606995        0.8282373128
 C        -9.5460654224       -0.6590039013        1.9668446629
 C        -8.2428704277       -1.2729904938        1.5509501589
 O        -7.9332183050       -1.2004384750        0.3886385573
 C        -7.4902115772       -2.1402476402        2.5758710608
 C        -8.4681250311       -3.2595325865        2.9219607566
 O        -9.1751857562       -3.1621057206        3.8080431805
 C        -8.2322408882       -4.6267607863        2.0046128359
 C        -9.3836531306       -5.4998819439        2.1060995967
 C       -10.6760676579       -5.2774794627        1.3383535389
 O       -11.0138605109       -4.2155787830        0.9778710543
 C       -11.6005882284       -6.5981550714        1.1722984121
 C       -10.8486006900       -7.8622250367        0.6966556281
 O       -10.5889765639       -8.8307122779        1.4791298245
 C       -10.2910355395       -7.9304168415       -0.7673402113
 C       -12.2991536837       -7.1156352433        2.4774079855
 C       -12.6603884490       -6.2195354441       -0.0261622333
 C        -6.2189546066       -2.7060213995        1.9652890509
 C        -7.2029434680       -1.3736555777        3.8610856931
 C       -10.8439106089        2.5457772399       -1.1997069700
 C        -8.1583085808        2.6293722043       -0.9367470708
 C        -9.0494209973        8.9341442511        4.0777764342
 C       -11.2866796396        8.5358244846        3.2620196906
 C        -6.6352378253       10.7266424437       -3.2756117192
 C        -8.2473186101       12.1867545885       -2.0989575940
 C       -12.5885549997        6.1347416645       -5.0277336756
 C       -13.1306205115        8.2417242490       -6.5529259454
 H       -15.2614794531        7.5784133621       -3.8254328071
 H       -14.7571832668        9.3244474223       -4.4231302014
 H       -14.9195511431        8.8572728486       -2.7247254649
 H       -11.0838685285        9.8405607758       -5.5378525007
 H       -10.1859829038        8.7977900492       -6.6413470574
 H        -8.1373953205        9.9814361882       -5.4053511114
 H        -8.5207784758        8.5611464629       -4.3939909217
 H        -8.1479301108       11.0477816134        0.3505356948
 H        -6.6855796091       10.3404198091        0.1232494635
 H        -7.6931615795        9.8475369154        2.0309614468
 H        -7.4443622043        8.3418432752        1.1188679382
 H       -10.6382569180        6.4071185102        1.0799078562
 H       -10.9437635302        5.4004725023        2.4123081472
 H        -8.9775957272        4.1490885737        2.1706479399
 H        -8.1902978168        5.3864221642        1.1968623394
 H       -10.1456705494        0.0637906908       -0.2440978935
 H       -11.2778602966        0.4702441445        1.1937069685
 H       -10.3845069499       -1.2345777418        2.3562078703
 H        -9.6543955571       -0.0824717859        2.9335266882
 H        -7.3569027601       -5.1677717795        2.3873888365
 H        -7.9817513728       -4.3032032762        1.0267843150
 H        -9.6988792219       -5.4061460317        3.1874679484
 H        -9.2930367123       -6.5574134565        2.1132923079
 H        -9.2789910910       -8.2840197639       -0.8347226468
 H       -10.3388268600       -7.0773020787       -1.3584669948
 H       -10.9296229022       -8.5144132835       -1.3669314433
 H       -11.4870574499       -7.1445053075        3.2668311532
 H       -12.6349532403       -7.9995986196        1.9268535424
 H       -13.0720822378       -6.4502540976        2.7364278932
 H       -12.8033152723       -5.1577043536        0.1258793021
 H       -13.6261594534       -6.7904509897        0.1923404947
 H       -12.3596207091       -6.3719221077       -1.0466565302
 H        -5.7814477166       -3.6054645205        2.3913661326
 H        -5.3786531885       -2.0530091136        1.9721023635
 H        -6.3066578011       -3.0088103216        0.8708286277
 H        -6.5373735663       -1.8596032036        4.5760357760
 H        -8.0822860986       -1.1653541425        4.5683724185
 H        -6.6287198006       -0.5172415658        3.5889482188
 H       -11.7199492371        2.4527650205       -0.4456594166
 H       -10.7039785660        1.6632952332       -1.9046770578
 H       -11.0861954270        3.4122854119       -1.8555996768
 H        -7.9365668152        3.1920762556       -1.9115055111
 H        -8.1701871899        1.5470512622       -1.1274579839
 H        -7.4282917801        2.8478839370       -0.2046134495
 H        -9.5451343155        8.7629663706        5.0069373964
 H        -8.8818552823        9.9857793937        3.8958406145
 H        -8.0552636480        8.4535123792        4.2307915940
 H       -11.4972658290        9.6432775715        2.9940228964
 H       -11.5682914131        8.5697776569        4.2874709032
 H       -12.1588810643        8.1103813508        2.6893793150
 H        -5.8812570060       10.6672280716       -2.4507932780
 H        -6.5864915580       11.5232779083       -4.0307312611
 H        -6.4141649059        9.8215142307       -3.8402502071
 H        -8.9660621966       12.8065037584       -2.6293990693
 H        -7.4862260760       12.8297032803       -1.7815649917
 H        -8.8887730543       12.0439686563       -1.2725756451
 H       -11.8901576230        5.6253849092       -5.6873004768
 H       -13.6150133052        5.8236626145       -5.2036659811
 H       -12.4739660032        5.8180066728       -4.0202906272
 H       -12.3364843768        7.8909255337       -7.2152130448
 H       -12.9661542920        9.3228718097       -6.4677130071
 H       -14.1290390893        7.9311886494       -6.7966510757
 Na      -10.5359805084        7.3413532258       -1.6791753108
