117

 C       -14.5464194471        8.6971334744       -3.9290213078
 C       -13.2220723562        7.9284266899       -3.7097939774
 O       -12.7680799988        7.8168486453       -2.6251779691
 C       -12.4980623933        7.3230477634       -5.0581007895
 C       -10.9569511608        7.5546104177       -4.8414490316
 O       -10.2003504086        6.9906023153       -4.1518068533
 C       -10.2092661375        8.9213210935       -5.5226277247
 C        -8.8956226601        9.2488378076       -4.7500883517
 C        -9.1551376784       10.3286633542       -3.6397951365
 O       -10.2409418582       10.7960805437       -3.5113398599
 C        -8.0120435223       10.6748433143       -2.6509668538
 C        -7.9552075677        9.6734685954       -1.5075344375
 O        -8.0066567551        8.5123045065       -1.8832289548
 C        -7.4785993274       10.0447729898       -0.1612766737
 C        -7.7381712358        9.0446659446        1.0563183571
 C        -9.2149025367        8.8374477891        1.4034113506
 O       -10.1405122421        8.7355629560        0.5447011184
 C        -9.6541843570        8.3509733172        2.7661126503
 C        -9.6161122528        6.7871783258        3.1717469406
 O        -8.8140549225        6.4555133579        3.9827793415
 C       -10.3014787721        5.7150426579        2.3353882849
 C        -9.1915974888        5.0513571415        1.3573394134
 C        -9.8566891935        4.3896339264        0.1717340791
 O       -10.1868583248        5.1437016431       -0.7075998891
 C        -9.7865358973        2.8964724645       -0.2425611414
 C        -9.7438891027        2.0038272021        1.1253183624
 O        -9.4079906764        2.4184423734        2.1996036349
 C       -10.1182782046        0.5226640363        1.0394011672
 C        -9.3581188653       -0.2448004698        2.0937823859
 C        -8.2773904965       -1.1006847528        1.6576117341
 O        -8.0316533920       -1.1470043607        0.4638116277
 C        -7.5311489638       -2.0314268827        2.6940869803
 C        -8.5606529554       -3.3663779094        2.8305639225
 O        -9.3545667728       -3.2522938995        3.7842880546
 C        -8.5372336561       -4.3997817957        1.7095863763
 C        -9.3932707597       -5.7060333126        1.8719454191
 C       -10.8806763942       -5.5214428630        1.3987560747
 O       -11.2149228746       -4.3733761824        1.0325676321
 C       -11.8557678927       -6.6838789269        1.1445228283
 C       -10.8302308824       -7.9832192196        0.6436102227
 O       -10.4730345134       -8.6795562512        1.5085236962
 C       -10.4331171535       -8.0410680241       -0.7779734136
 C       -12.4595959353       -7.0239718886        2.5780329065
 C       -12.9780394210       -6.3591161044        0.2509589682
 C        -6.1552740125       -2.2668859635        2.1716787747
 C        -7.3757188258       -1.2574214785        4.0197357081
 C       -10.7782213298        2.2651786244       -1.2606464172
 C        -8.3439182089        2.6522682196       -0.8916780100
 C        -8.9426189790        9.1202337152        3.8842815858
 C       -11.2782950003        8.5807919015        2.9147061982
 C        -6.5009749642       10.6400822628       -3.3530293312
 C        -8.3917802248       12.1351433512       -2.3189673248
 C       -12.8119665608        5.7566971691       -4.9830366403
 C       -13.2382136426        7.9138229908       -6.3629761086
 H       -15.0992835538        8.0667483871       -4.6115631971
 H       -14.2239849008        9.5983589926       -4.3276929709
 H       -15.1662690290        8.7894129262       -3.0177154403
 H       -10.8869927564        9.7735472728       -5.6103821281
 H        -9.8180713442        8.7211669041       -6.5270374634
 H        -8.2371620448        9.5465223169       -5.5051198814
 H        -8.4551370348        8.2812800196       -4.3043030317
 H        -7.7575568948       11.0941629193        0.1088371203
 H        -6.4209994141       10.1917047355       -0.2182024222
 H        -7.1621175348        9.2582154496        1.9436761911
 H        -7.5576491446        7.9580771608        0.7029506318
 H       -11.0774609152        6.1888261593        1.6672263301
 H       -10.8522488626        4.8703308938        2.8032538337
 H        -8.4917872191        4.4536287112        1.9383073699
 H        -8.5585528891        5.8391019410        0.9102493461
 H        -9.8894762075       -0.0723598563        0.1802465685
 H       -11.2176381119        0.6732463364        1.1813745503
 H       -10.0359297954       -0.7148781154        2.8160040700
 H        -9.0815168774        0.4693216048        2.8419043254
 H        -7.4752996484       -4.6695128682        1.5330529920
 H        -8.7744410658       -3.7123551532        0.8298339101
 H        -9.3502697083       -6.2870389114        2.8159605362
 H        -9.0910904803       -6.6189332336        1.2275568665
 H        -9.8625735717       -8.9436744488       -0.9860493421
 H        -9.6681725685       -7.1736056446       -0.9994261458
 H       -11.1728637638       -7.8773959432       -1.6063457706
 H       -11.5715525359       -7.1215908322        3.0732454903
 H       -13.1608618676       -7.8040098789        2.4013131163
 H       -12.9201842570       -6.0873500079        2.9922478079
 H       -13.2219133582       -5.3465125095        0.0877043367
 H       -13.8109352960       -6.9957225679        0.4487224301
 H       -12.5462813236       -6.7273508483       -0.6657410762
 H        -5.5804103273       -3.1320840055        2.5570151680
 H        -5.4472817671       -1.4439007623        2.3837193325
 H        -6.0807086459       -2.4039269336        1.1423876018
 H        -6.8577082136       -1.8240913940        4.8372842137
 H        -8.3163221084       -0.9429789305        4.4194833626
 H        -6.6461136761       -0.4094544500        3.9935697770
 H       -11.7547805753        2.3342188109       -0.8835050847
 H       -10.4473318685        1.1933541643       -1.4213607798
 H       -10.7759486689        2.8104857195       -2.2009442081
 H        -8.3342244818        3.2508551591       -1.7614141630
 H        -8.2629267967        1.5986419634       -1.2052275169
 H        -7.5020844954        2.9601931590       -0.1855474780
 H        -9.1015177318        8.6875907470        4.9403663474
 H        -9.2860302383       10.1926595781        3.8389042835
 H        -7.8481902865        9.1227780388        3.7434175502
 H       -11.6281717107        9.5670497425        3.1490864116
 H       -11.7338631671        7.8972751417        3.7136796432
 H       -11.8548715967        8.3498119694        2.0968973742
 H        -5.7634331329       10.9686867496       -2.5997977314
 H        -6.4814219901       11.2179830286       -4.2872000663
 H        -6.2271956851        9.6029030299       -3.7311790539
 H        -8.3727807393       12.7486142971       -3.1988411491
 H        -7.5434548970       12.6143720087       -1.7317551231
 H        -9.3420639970       12.4432067290       -1.8338136716
 H       -12.6931880090        5.3582966284       -5.9753485441
 H       -13.7877888057        5.4465063857       -4.6205813954
 H       -11.9911194563        5.3024763816       -4.4043848451
 H       -12.6647623206        7.6114801817       -7.2191449333
 H       -13.4590978250        8.9681924101       -6.2822113000
 H       -14.1879728752        7.3655881542       -6.2992501695
 Na      -10.4056227139        7.5765415772       -1.7624373069
