117

 C       -14.2327132846        8.6997878688       -3.8341753614
 C       -13.0967539065        7.7796779156       -3.5454343991
 O       -12.5951533842        7.6405317016       -2.4998997868
 C       -12.3768399350        7.0834881638       -4.8041778515
 C       -10.8952528934        7.2127971677       -4.5772469907
 O       -10.3233478011        6.5309277973       -3.6268418605
 C       -10.1762722713        8.4254469252       -5.2657384220
 C        -8.8686667052        8.9890208440       -4.6641694705
 C        -9.1080917678       10.2363395798       -3.7259938964
 O        -9.9406385490       11.0331360141       -3.8603240018
 C        -7.9431812579       10.6164805177       -2.8405837220
 C        -7.7810563399        9.4726804115       -1.7500471055
 O        -7.8680455971        8.2882535704       -2.0539930985
 C        -7.5852487683        9.8928081401       -0.3087456005
 C        -7.6613881605        8.7674497544        0.7234287491
 C        -9.0588004693        8.4867248871        1.1221103574
 O        -9.9240289633        8.4492809294        0.3054386994
 C        -9.5341754791        8.3893485156        2.6031971185
 C        -9.4758322859        7.0019845375        3.0816924609
 O        -9.3144220386        6.8579017670        4.2619568420
 C        -9.8255391126        5.8879766980        2.2459321355
 C        -9.0915738038        5.7088460760        0.8688605080
 C        -9.7501762120        4.7181986791       -0.0976591810
 O       -10.3338003504        5.1936610597       -1.0461797591
 C        -9.7764206371        3.1277899522       -0.0756862080
 C        -9.8670032383        2.3592782525        1.3418795758
 O        -9.8220389013        2.9779836108        2.3691106979
 C       -10.1620939772        0.8858799717        1.2119485421
 C        -9.5712686813       -0.0102363636        2.2700263574
 C        -8.3948464227       -0.9596304575        1.8392135016
 O        -8.0621131367       -1.0734618704        0.6587621952
 C        -7.7706818038       -2.0025031582        2.8114951808
 C        -8.6885003729       -3.3195675319        2.7143502346
 O        -9.3667262631       -3.7038506709        3.6589020809
 C        -8.7889200393       -4.1216543590        1.3550145737
 C        -9.4780210778       -5.4211845971        1.5993997599
 C       -11.0507364409       -5.3195334998        1.2269982623
 O       -11.5361332021       -4.2007473776        0.8587903646
 C       -11.8026369891       -6.6529136213        1.4054668231
 C       -10.9392334383       -7.8349985026        0.7951697758
 O       -10.4622422447       -8.6722798025        1.5161314632
 C       -10.7165681996       -8.2074615612       -0.6727063507
 C       -12.1795380488       -7.0378903618        2.8350538960
 C       -13.0607778337       -6.6222564169        0.5482865091
 C        -6.3843015109       -2.3817286991        2.3906824305
 C        -7.8080575735       -1.6603015369        4.3541740176
 C       -10.9579276966        2.7160944547       -1.0866458209
 C        -8.4376136744        2.7906819793       -0.6887222168
 C        -8.7299234862        9.4792039602        3.3969801705
 C       -11.1440073086        8.7952915116        2.5202562584
 C        -6.6014358972       10.5323444586       -3.8706142364
 C        -8.1336259895       11.9386865981       -2.2554231748
 C       -12.7016545240        5.5689699343       -4.6288474595
 C       -12.7471743150        7.5814329268       -6.2997257282
 H       -15.0550277312        8.3716953655       -4.4552597524
 H       -13.5872668897        9.4977787933       -4.2401582827
 H       -14.5313557805        8.9935119656       -2.8215091927
 H       -10.8843258650        9.1959470469       -5.3440122701
 H        -9.9997532104        8.1115083416       -6.3687870511
 H        -8.4067230457        9.5021818531       -5.5156004181
 H        -8.2054576213        8.1574800365       -4.2499273984
 H        -8.3534015257       10.6975003994       -0.1764981075
 H        -6.6874729253       10.4800256961       -0.1157856566
 H        -7.0907706150        8.7849947158        1.6131798688
 H        -7.3207343517        7.9088624223        0.1492890100
 H       -10.8619168754        5.9184386987        2.0581296332
 H        -9.6128350867        4.9119724209        2.7944730808
 H        -8.0380796877        5.4993158110        1.1213031642
 H        -8.9798107594        6.5792378549        0.1840717677
 H        -9.8617809115        0.4411593531        0.1623666438
 H       -11.2948117750        0.9337484885        1.3000921913
 H       -10.4428253091       -0.4045933224        2.8813654231
 H        -9.1749575729        0.6488020641        3.1159359854
 H        -7.8128484070       -4.2975377140        0.9425481529
 H        -9.2429857459       -3.4455273422        0.6531367993
 H        -9.6057153583       -5.9801919502        2.5108107201
 H        -8.9833040604       -6.3135903644        1.2070972332
 H       -10.8859306642       -9.1905160701       -0.8772109602
 H        -9.8546088425       -7.9370270168       -1.2100284584
 H       -11.4964340481       -7.7688023486       -1.2343401787
 H       -11.2436023256       -7.4431183707        3.2083586863
 H       -13.0240925109       -7.6642456539        2.6061785749
 H       -12.4454974178       -6.0815870829        3.3693988273
 H       -13.9252800580       -6.4680715012        1.2570020709
 H       -13.1985400049       -7.5040236746       -0.0048861648
 H       -13.0149362261       -5.7073232607       -0.1097314818
 H        -5.8487646055       -2.7759329096        3.2367991381
 H        -5.6905215078       -1.5338133515        2.0716928603
 H        -6.1708840402       -3.0646689024        1.6029610887
 H        -6.9663117339       -2.0965866432        4.9038906338
 H        -8.7366074367       -1.9447555254        4.7140453088
 H        -7.8279176533       -0.5705745866        4.7117387905
 H       -11.9959845567        2.9851071553       -0.7989463045
 H       -10.8576259148        1.6376601561       -1.2803600042
 H       -10.7645622993        3.4592146654       -1.9425612418
 H        -8.2629116578        3.1700833145       -1.6606594389
 H        -8.3489390263        1.7072056467       -0.5962689335
 H        -7.7422037511        3.1861361774        0.0964088294
 H        -9.1801585016        9.6370238692        4.3691407670
 H        -8.9634150386       10.4599811225        2.9537998308
 H        -7.7125694526        9.3151744243        3.5365807610
 H       -11.3191438788        9.7611865454        2.1036835107
 H       -11.6965367367        8.7058119438        3.4921660580
 H       -11.7508710899        8.0638763196        1.9323087575
 H        -5.6830322232       10.8776140181       -3.4225665301
 H        -6.6868568901       11.1968389325       -4.7430836432
 H        -6.5616618901        9.4789342573       -4.3167196291
 H        -7.8785305064       12.6169572070       -3.0697845716
 H        -7.4603400198       12.2813932111       -1.4997158876
 H        -9.1300317335       12.1840491878       -1.9404158527
 H       -12.1793307103        4.8815269646       -5.2745213123
 H       -13.7436395468        5.5115152295       -4.9330558623
 H       -12.4798961477        5.1905205601       -3.6128961885
 H       -11.9912846232        7.1176796255       -6.9006823887
 H       -12.9077372053        8.6601541617       -6.3833769997
 H       -13.7183831216        7.0956900781       -6.5179093756
 Na      -10.2475047586        7.3473164993       -1.6711634112
