117

 C       -14.1291082080        8.6596921652       -3.7597200964
 C       -12.9496586920        7.6961468796       -3.4605952860
 O       -12.4025929754        7.8007983115       -2.2786953375
 C       -12.3593750813        6.8532468109       -4.6453255425
 C       -10.6942093634        7.0719113260       -4.6817383142
 O       -10.0126359383        6.4629863022       -3.9425400498
 C       -10.1591825786        8.2874170687       -5.3869050546
 C        -8.9231291712        8.7596695158       -4.7179078684
 C        -8.9450319130       10.0703859095       -3.9931378329
 O        -9.9754674233       10.7479755789       -4.0707252185
 C        -7.7177770995       10.4267190469       -3.0739958327
 C        -7.7023520250        9.4562175492       -1.8888370065
 O        -7.8600637745        8.2615812978       -2.0088460776
 C        -7.3160250796        9.9539892221       -0.4744430225
 C        -7.7740700181        8.8502848212        0.5039202947
 C        -9.1944012515        8.7230561027        0.9200241172
 O        -9.9977515678        8.5139842854        0.0138239924
 C        -9.6121830357        8.6158820363        2.4278778995
 C        -9.3616716460        7.2344276174        2.9779957491
 O        -9.4664356780        7.1032599783        4.1700060530
 C        -9.6286336628        5.9227800960        2.0916862797
 C        -8.7303616944        5.3667906139        0.9891114764
 C        -9.7063085742        4.6198679577       -0.0683034949
 O       -10.5738054434        5.2540666389       -0.7048339385
 C        -9.7781493449        3.1525839724       -0.0438844243
 C        -9.8050001218        2.4196608629        1.3943072790
 O       -10.0873400294        3.0051814447        2.4306666059
 C       -10.1258031476        0.8623887217        1.3140819606
 C        -9.4793031958        0.1968606784        2.5731039291
 C        -8.6002594365       -0.8577820876        1.9916810318
 O        -8.1765270858       -0.7527379289        0.8359529557
 C        -8.0353024986       -1.9415649788        2.9578795319
 C        -8.9036962573       -3.3362127115        2.9105828356
 O        -9.4588279266       -3.9462924551        3.7540611753
 C        -8.9555245139       -4.0019832648        1.3705774400
 C        -9.5124074469       -5.4305470540        1.0934299326
 C       -11.0866744420       -5.4359776048        1.0096634930
 O       -11.7139534913       -4.4862832459        0.7888096604
 C       -11.9135857343       -6.7639137548        1.3457546526
 C       -11.0657778199       -7.9312826008        0.8194573138
 O       -10.3570573975       -8.5943287228        1.6516250407
 C       -10.9968475198       -8.0802772792       -0.6622820900
 C       -11.9073748051       -6.7432641416        2.9133518798
 C       -13.3546188956       -6.6313245658        0.8200275875
 C        -6.5741148339       -2.2906500493        2.5136900732
 C        -8.0866708693       -1.4457634443        4.3138301564
 C       -10.9975867076        2.6717181881       -0.9980864744
 C        -8.3605464361        2.7209312440       -0.6647424945
 C        -8.6864883885        9.5978751566        3.2602026082
 C       -11.0815870554        9.1349467891        2.6296087114
 C        -6.3014200215       10.4763972005       -3.7175686860
 C        -7.8832810188       11.9914277458       -2.5207936655
 C       -12.6396955062        5.4223364309       -4.2812961776
 C       -12.8806360472        7.2771518134       -6.0370819636
 H       -14.8659791823        8.0059148104       -4.1939082819
 H       -13.7438325306        9.3839552183       -4.5316689195
 H       -14.4850989430        9.1090024965       -2.8828522477
 H       -10.9472819514        9.1188425384       -5.2641569472
 H       -10.1003321525        8.1193927670       -6.4072718200
 H        -8.1035132291        8.7867452411       -5.4617354826
 H        -8.7174574530        8.0439373452       -3.9690819515
 H        -7.5368495825       10.9244340772       -0.0823192664
 H        -6.1920895932        9.9474020553       -0.4461290842
 H        -7.1887654343        8.7680199591        1.4714889930
 H        -7.5909938014        7.8342387648        0.0719959136
 H       -10.5659359803        6.0795560024        1.4338998596
 H        -9.8088096780        5.1803994906        2.8415886500
 H        -7.9713081647        4.6382993241        1.3112890555
 H        -8.1584183473        6.1596885849        0.5567013241
 H        -9.7732944941        0.4479835736        0.3879911861
 H       -11.1938364009        0.6853769007        1.4571601085
 H       -10.3050632031       -0.2509118695        3.1196952428
 H        -9.0631303819        0.8758090514        3.3203861559
 H        -7.8843900016       -3.8807899371        0.9908989049
 H        -9.4487233840       -3.1246045242        0.8811390320
 H        -9.2171188602       -6.2814307266        1.7436469513
 H        -9.2937790256       -6.0488834433        0.2366428292
 H       -11.2204916568       -9.1680231141       -1.0070168959
 H        -9.9153740530       -8.0278111055       -0.8553503164
 H       -11.4624974797       -7.4912114815       -1.4811876471
 H       -10.8809937134       -6.3750633651        3.2012244217
 H       -12.1248417016       -7.7940829434        3.1684900922
 H       -12.6612512268       -6.0596991162        3.1325295303
 H       -14.0065820257       -6.7736290519        1.6424506608
 H       -13.5000296318       -7.4408977959        0.0848208553
 H       -13.5324896473       -5.6957175014        0.3991883616
 H        -6.1010842305       -3.2466241462        2.6599441828
 H        -5.8095961581       -1.6332930569        2.7937495532
 H        -6.5675154711       -2.1246857125        1.4016104333
 H        -7.7687548715       -2.2413930458        4.9811786968
 H        -9.0991109751       -0.9731812671        4.6052914116
 H        -7.5027575294       -0.5812562134        4.5141436141
 H       -11.9642505360        2.9210041082       -0.5568030305
 H       -10.9065811682        1.6661962488       -0.8403649184
 H       -10.9517310921        3.0472547054       -2.0062658611
 H        -8.3099126682        3.2333726444       -1.6901536386
 H        -8.3199640922        1.6202058105       -0.7441616525
 H        -7.5643501129        3.0303351692       -0.0094865743
 H        -9.1642142892       10.1679497388        4.0740554094
 H        -8.4004044434       10.4787104037        2.6503491063
 H        -7.7235978711        9.0791163105        3.6450982146
 H       -11.2053510829        9.8544400082        1.8386009877
 H       -11.2784384994        9.6054962550        3.5346888034
 H       -11.9597038593        8.4443671768        2.7670990854
 H        -5.6137138510       10.9965640107       -3.0275236470
 H        -6.2689819743       11.2811756390       -4.5023172130
 H        -5.9781727095        9.5470869577       -4.1398178510
 H        -8.4036133569       12.8011049265       -3.1353237948
 H        -6.9223453432       12.4437913821       -2.2580591222
 H        -8.2669115175       11.8624882873       -1.4893246342
 H       -11.8681320481        4.7623855372       -4.6492639831
 H       -13.5304326007        5.0185740110       -4.6888439130
 H       -12.4755081839        5.3055169077       -3.2644541782
 H       -12.2302679543        6.8050502943       -6.7968182577
 H       -12.8531925299        8.3692025533       -6.0071347903
 H       -13.9107343276        7.0110989708       -6.2086740411
 Na      -10.2365009269        7.2809837954       -1.7674129560
