117

 C       -14.1157447972        8.4858486900       -3.5908097682
 C       -12.7370635571        7.8117394527       -3.4055907338
 O       -12.1199827739        8.0652569694       -2.3487694098
 C       -12.1556618608        6.7582003727       -4.5379781013
 C       -10.5099210271        7.0284921643       -4.7958722014
 O        -9.8434829419        6.2186736920       -4.2381468754
 C       -10.0144361991        8.2004808709       -5.6315671268
 C        -8.6671089805        8.7525989123       -5.2684656706
 C        -8.8263483520        9.8700152897       -4.2786984461
 O        -9.8780137102       10.5278498760       -4.0965297742
 C        -7.5900417860       10.2177839116       -3.3380718253
 C        -7.7934844260        9.3623923675       -2.0386806560
 O        -8.0917898568        8.2022871777       -2.2146725289
 C        -7.2936554618        9.9298500471       -0.7020273204
 C        -7.4295068728        8.8611084074        0.3751165785
 C        -8.9308826951        8.9333573226        0.8524284450
 O        -9.9460220520        8.9442971347        0.0590411727
 C        -9.4591131922        8.9724062849        2.3447303212
 C        -9.4561826960        7.5001058316        3.0052871427
 O        -8.9244508390        7.2399474788        4.0641031185
 C       -10.2799498306        6.4242772211        2.1103985961
 C        -9.2951968548        5.4055480104        1.3999848498
 C        -9.8979318441        4.6884772448        0.2174624578
 O       -10.3902914116        5.3714875739       -0.6662424651
 C        -9.7622165785        3.0709591800        0.0262652350
 C       -10.1267515242        2.3347120955        1.3966752708
 O       -10.1190841891        2.9554105093        2.4713749617
 C       -10.5744322786        0.8962967236        1.5584864413
 C        -9.8342966736        0.1703985013        2.5865540263
 C        -8.6308197699       -0.8580425135        2.1183622142
 O        -8.2190867562       -0.8448654673        1.0098615932
 C        -8.1742093082       -2.1471254468        3.2120128070
 C        -9.0546271832       -3.2620850962        2.8081972407
 O        -9.5685004349       -4.0747568939        3.5521115651
 C        -9.2425877904       -3.5457057461        1.1216739230
 C        -9.6901967719       -5.0453725541        1.0303994253
 C       -11.2024192392       -5.2102342265        0.9152951886
 O       -11.9541761807       -4.4675797092        0.3913127649
 C       -11.7770137375       -6.5626364646        1.5856336057
 C       -11.0177037242       -7.7126000187        0.9999475713
 O       -10.3741166219       -8.5016661620        1.6516308047
 C       -11.3382758015       -8.1149595211       -0.5442515717
 C       -11.6023150760       -6.6450002313        3.0869893698
 C       -13.2757052943       -6.8654700863        1.2422418757
 C        -6.6654821780       -2.4719161513        2.8885857415
 C        -8.3912321783       -1.9475212414        4.6741853507
 C       -10.7902688194        2.7403908172       -1.1000626445
 C        -8.3820594815        2.3843912557       -0.4407523868
 C        -8.7111452564        9.8822528417        3.3457874598
 C       -10.9219381896        9.4440967383        2.3822178604
 C        -6.1368812671       10.0563876452       -3.9404175604
 C        -7.7548562706       11.8146170370       -3.0057779045
 C       -12.3661121609        5.4480066975       -3.7330955584
 C       -12.9863414235        6.7267782766       -5.8119465998
 H       -14.9036272476        7.6912388708       -3.6219064963
 H       -14.1413733581        9.0965502649       -4.4811395747
 H       -14.1814851377        9.0390449163       -2.6802424099
 H       -10.7457858055        9.0193387289       -5.4976180442
 H       -10.0347336339        7.9516813319       -6.6911718501
 H        -8.1550274569        9.1223020675       -6.1515919184
 H        -8.0886491804        7.9063563445       -4.7567750894
 H        -7.7761246773       10.9233553271       -0.5252182367
 H        -6.2146343082       10.0270807700       -0.7538571085
 H        -6.7428281480        8.8500153453        1.1727773513
 H        -7.2719082964        7.8969392229       -0.1145883602
 H       -10.7170745770        6.9603669361        1.1806843626
 H       -10.9730244443        5.8886233284        2.6884497485
 H        -8.7332621497        4.7599405921        2.1397115308
 H        -8.4915477413        5.9712683452        0.8522192965
 H       -10.6606588980        0.3567565853        0.5521523015
 H       -11.6491526726        1.0855641655        2.0282312821
 H       -10.5564029967       -0.5827374649        3.0429562959
 H        -9.5284598804        0.9352724222        3.3979693002
 H        -8.3972264204       -3.2569258490        0.5425708588
 H       -10.1068675747       -3.0101991043        0.7463404423
 H        -9.5827809206       -5.6693582883        1.9564627642
 H        -9.0551841570       -5.7728326795        0.3532297659
 H       -12.2930570310       -8.5027124379       -0.8034302320
 H       -10.6716891158       -8.7472337775       -1.0517460335
 H       -11.3488089494       -7.2603643501       -1.1117275756
 H       -10.5270767880       -6.6407328250        3.2276350908
 H       -11.8397876457       -7.6721183955        3.3953626612
 H       -12.2181729354       -5.8248945580        3.4352279911
 H       -13.5086800956       -7.9022210107        1.4289639631
 H       -13.6239125954       -6.5171161420        0.1738260936
 H       -13.7746310894       -6.2754549184        2.0029364931
 H        -6.3431418960       -3.5389371993        3.1547014605
 H        -5.9344868024       -1.8684202010        3.3776540865
 H        -6.4063822079       -2.4667630491        1.8120999782
 H        -8.0904537891       -2.8899667252        5.1669747775
 H        -9.4816503966       -1.8972350594        5.0392550473
 H        -7.9616605214       -1.0802377606        5.0362437797
 H       -11.8775917752        2.9855929126       -0.7380521316
 H       -10.7320904940        1.7172458993       -1.5066701787
 H       -10.4306754797        3.5182810852       -1.8049545943
 H        -8.1833336283        2.6621786763       -1.4823200599
 H        -8.5800470996        1.3303378457       -0.3790487289
 H        -7.6186752805        2.6529053737        0.2459668203
 H        -8.9284296981        9.8099633197        4.3820193028
 H        -8.7511195452       10.9220146427        3.1380917148
 H        -7.6399885958        9.6844493063        3.2385199557
 H       -11.0206934469       10.5517593223        2.3988442815
 H       -11.4616500012        9.0473575253        3.1951271863
 H       -11.6368416570        9.1260516140        1.6491188156
 H        -5.4199638438       10.6083360307       -3.2160393739
 H        -6.1503687885       10.8298630836       -4.7321162204
 H        -5.7702369652        9.1305853993       -4.3129661555
 H        -7.3533670778       12.3909421959       -3.7977319824
 H        -7.2932721012       12.1131075980       -2.0734222742
 H        -8.7870595707       12.0138488276       -2.8494927401
 H       -12.3863594635        4.4339656733       -4.1850446316
 H       -13.3807846091        5.5157109142       -3.2533395053
 H       -11.5752409369        5.4616762068       -2.9602393455
 H       -12.5923595564        5.9234665762       -6.4956310888
 H       -12.8587546498        7.6981686171       -6.3144041661
 H       -14.0514367647        6.5113973412       -5.6222135224
 Na       -9.9853687313        7.1546694681       -1.7890591255
