117

 C       -13.8871162422        8.4657821259       -3.5313455050
 C       -12.3745169075        7.9794264727       -3.4819076953
 O       -11.6651854406        8.5027868224       -2.7443822685
 C       -11.9671455521        6.5985047876       -4.3155086881
 C       -10.3738868222        6.8907386227       -4.5913314405
 O        -9.5893735576        6.4505713203       -3.7507260065
 C       -10.0279121102        7.8376945478       -5.6979732551
 C        -8.7604563033        8.7562755978       -5.6255574505
 C        -8.8312281153        9.7472007374       -4.5192287954
 O        -9.9146758134       10.3568998227       -4.2829499541
 C        -7.6144747067       10.0800678523       -3.6887011627
 C        -7.4995755558        9.2343914487       -2.3310161759
 O        -7.8199457490        8.0609411898       -2.3705775219
 C        -7.1320448849        9.8830702163       -1.0297344254
 C        -7.4947446031        9.2667673053        0.3337218961
 C        -9.0038892768        9.0875894933        0.7732728507
 O        -9.8953796181        8.7938982995        0.0369132436
 C        -9.4494368960        9.1851082654        2.3044078667
 C        -9.4101132847        7.6920055210        2.6060894121
 O        -8.4932821455        7.2042591188        3.2682902085
 C       -10.4025527342        6.6365615090        1.9163797063
 C        -9.5882539648        5.3286392575        1.6106117170
 C       -10.0550870312        4.5881137271        0.4015678566
 O       -10.1374658597        5.1625048832       -0.6640895082
 C        -9.9800109572        3.0503616002        0.4783104442
 C       -10.4056425003        2.2400694914        1.7655213947
 O       -10.2823830436        2.6608234201        2.9258482846
 C       -10.5489643484        0.7081118117        1.4482574522
 C       -10.2230960884       -0.1279389940        2.6312888073
 C        -8.9259415910       -0.8124351765        2.3313618797
 O        -8.2137555000       -0.4985149843        1.4454531013
 C        -8.4883174374       -2.0419451737        3.2135697761
 C        -9.3768134477       -3.3062623735        2.7529143439
 O        -9.8968765522       -4.1809840263        3.5277147829
 C        -9.4484005917       -3.5880923482        1.2338120501
 C        -9.8820089686       -5.0171174834        0.6154395357
 C       -11.3306537809       -5.3003415945        0.7955415726
 O       -12.2230159295       -4.6232377676        0.3036747177
 C       -11.7560097535       -6.5502869486        1.6568989203
 C       -11.1002623243       -7.7947907835        1.0348822154
 O       -10.2153851812       -8.3194540565        1.5774214853
 C       -11.5176519226       -8.0508437967       -0.5194451091
 C       -11.3366626722       -6.2898201098        3.1495386629
 C       -13.2977843945       -6.5832854798        1.8565545191
 C        -7.0156118825       -2.3490750657        2.9560323368
 C        -8.7715716608       -1.7950673744        4.6821627461
 C       -10.7404293934        2.3753890029       -0.7219130708
 C        -8.3319199160        2.9377968910        0.3544932048
 C        -8.4747541067        9.9294049566        3.1773045958
 C       -10.9024419009        9.7757097765        2.3285657612
 C        -6.4200042654        9.5376750025       -4.5009976397
 C        -7.4402685287       11.5724542482       -3.5167675333
 C       -12.1004872139        5.2426055809       -3.5501530629
 C       -12.7736643929        6.5582806497       -5.5807753714
 H       -14.5020557600        7.5245073463       -3.3589559197
 H       -14.1128792986        8.8103387065       -4.5050182757
 H       -14.0301149858        9.2717843995       -2.7699493250
 H       -10.8221058559        8.4953288635       -5.8822080416
 H        -9.9110234236        7.2146609203       -6.6642750048
 H        -8.7122597444        9.2752706016       -6.5237804533
 H        -7.8636825026        8.0748148789       -5.5386240826
 H        -7.6609612938       10.8757419199       -0.9715550702
 H        -6.0687687577        9.9392489139       -0.9735102963
 H        -7.1106162151        9.9213410295        1.0985117675
 H        -6.9941332558        8.3186360509        0.7143113444
 H       -10.7915341938        7.0980315562        1.0456201996
 H       -11.1249596429        6.4655361048        2.6703904394
 H        -9.7852304643        4.7097721004        2.4608362977
 H        -8.5158474762        5.4942595587        1.4033447782
 H        -9.9954833949        0.4745752488        0.6246239612
 H       -11.5659207685        0.5359651378        1.2714705992
 H       -11.0054741868       -0.8520659510        2.9080469569
 H        -9.8268677017        0.3982007802        3.4405121537
 H        -8.5459630506       -3.2226119577        0.7326970148
 H       -10.3000942491       -2.8662549363        1.0981737623
 H        -9.2158823013       -5.7905287138        1.0542699585
 H        -9.5305417101       -4.8208362740       -0.4317290339
 H       -12.3970781684       -7.6544080635       -1.0904686097
 H       -11.6664240851       -9.1721042035       -0.7455474438
 H       -10.6974228384       -7.7337698258       -1.2070661495
 H       -10.2979576083       -6.4222858454        3.0964240192
 H       -11.6693558276       -7.2246075705        3.5963031932
 H       -11.8556634690       -5.3437676548        3.4318430911
 H       -13.7550721199       -7.0980583054        1.0827134246
 H       -13.6159927763       -5.4863267153        1.8008382920
 H       -13.6305576514       -6.9254965325        2.8112349475
 H        -6.4162698994       -3.0273408430        3.6269146866
 H        -6.4870663232       -1.4267368301        2.9014678861
 H        -6.8671585374       -2.7707369205        2.0189815109
 H        -8.5879477811       -2.5627482536        5.4403679856
 H        -9.8536271361       -1.6981669065        4.7438191163
 H        -8.3624828095       -0.8847507414        4.9666936330
 H       -11.5680917914        3.0448188330       -0.8015917020
 H       -11.0367911032        1.3477845229       -0.4928853798
 H       -10.1359472155        2.2846859060       -1.5703464478
 H        -7.9588880532        3.4951922688       -0.5023363548
 H        -8.2014817260        1.8672681972        0.2014749990
 H        -7.8996666768        3.3083720087        1.3168962434
 H        -8.8736188996       10.0657828464        4.2088512410
 H        -8.1207542293       10.9140282562        2.8504978320
 H        -7.5342293519        9.4403242845        3.3240852743
 H       -10.9228625868       10.9481617607        2.4540197766
 H       -11.4831965264        9.5380017427        3.2676657576
 H       -11.6324636441        9.6888097653        1.5227806798
 H        -5.5863054114        9.9437107230       -3.8366630075
 H        -6.4634058647        9.8405411543       -5.5899749484
 H        -6.1586466334        8.4752292982       -4.4448636510
 H        -7.7941508195       11.9870207167       -4.4690393096
 H        -6.3223367207       11.8607983243       -3.3803076990
 H        -8.1022868979       12.0556177590       -2.7393734933
 H       -11.5653130957        4.5261478417       -4.1308627283
 H       -13.1204320845        4.9282721581       -3.3647647415
 H       -11.6598149421        5.2842159539       -2.5408785328
 H       -12.3291466818        5.8054918318       -6.2702302338
 H       -12.6484165081        7.4461826587       -6.1991486917
 H       -13.8210395856        6.2572914291       -5.4321175015
 Na       -9.9086336546        7.2407090861       -1.6062204276
