117

 C       -13.6499676963        8.3967349979       -3.6723971528
 C       -12.2833159299        7.8997060679       -3.4297043375
 O       -11.6034977199        8.2723077293       -2.5492593640
 C       -11.8764243012        6.5806991776       -4.2514024390
 C       -10.3891513705        6.8751559227       -4.7157342676
 O        -9.4831127248        6.7023258073       -3.9241734509
 C       -10.0812921057        7.6945641535       -6.0701345407
 C        -8.7062212591        8.2992707230       -5.8717417735
 C        -8.6427658983        9.3609288423       -4.6530628925
 O        -9.7435494816        9.8645316375       -4.3534375286
 C        -7.3123829738        9.8588273372       -3.8985737391
 C        -7.3570044083        9.3396405496       -2.3928290667
 O        -7.3713575649        8.0666794977       -2.2556098527
 C        -7.5289126998       10.3823893923       -1.3138864515
 C        -7.3640549145        9.6754152569       -0.0329841917
 C        -8.9506750519        9.5070454484        0.4762411553
 O        -9.8033666328        9.4269879253       -0.3109859016
 C        -9.2500872232        9.3091305957        2.0201697377
 C        -9.1226852159        7.8184711732        2.3779326584
 O        -8.0178828127        7.3795944537        2.7661807793
 C       -10.3735577137        6.8292435916        2.0350827657
 C       -10.1152993365        5.3107408116        2.2335274462
 C       -10.1305802943        4.5297032734        0.8545008525
 O       -10.5653657752        5.2114521116       -0.0723117227
 C        -9.8548398758        2.9776098084        0.5425639906
 C       -10.6257096308        2.1547899003        1.6666954470
 O       -10.6083510567        2.7017842376        2.7523500196
 C       -11.2316845286        0.6618752489        1.6572179726
 C       -10.6126069484       -0.2914956819        2.6938563244
 C        -9.0381376604       -0.6431590142        2.4960902719
 O        -8.2850125636       -0.2154597311        1.7004523974
 C        -8.6018566970       -2.0774917372        3.4186211944
 C        -9.4102732066       -3.2120668227        2.7636752913
 O       -10.2066843061       -3.9885217184        3.4477785361
 C        -9.5375062014       -3.3646945720        1.1422354105
 C        -9.9624378009       -4.8800063757        0.9196893038
 C       -11.3593062235       -5.2679398052        1.1032335835
 O       -12.2710272982       -4.6507946564        0.5339870730
 C       -11.8922225850       -6.5692320222        1.7929297318
 C       -11.1905287173       -7.7953807515        0.9524770343
 O       -10.2073789636       -8.2871278201        1.3300168143
 C       -11.8858784751       -8.0908658950       -0.4405623788
 C       -11.3441508184       -6.6947203400        3.2059122590
 C       -13.4182877743       -6.6848079794        1.9038346453
 C        -7.1047549523       -2.3999020873        3.2070401564
 C        -8.8566534873       -1.8250855532        4.9690961188
 C       -10.2471707257        2.5373484545       -0.9749253514
 C        -8.3706447268        2.5438510681        0.6940498852
 C        -8.1987862130       10.1251126640        2.8241377546
 C       -10.7486064504        9.7733675483        2.3739214612
 C        -6.0462004423        9.1288795672       -4.6629081329
 C        -7.2213028506       11.4797477682       -3.9733939859
 C       -12.0106944620        5.4056911111       -3.1429946128
 C       -12.8068474332        6.2634471310       -5.4305276109
 H       -14.3263233691        7.5633283914       -3.5996452497
 H       -13.7642232766        8.8439940064       -4.5791961688
 H       -13.8093993526        9.1867641646       -2.8807487371
 H       -10.7019940057        8.5055385007       -6.2546378923
 H       -10.0968763472        7.0584672329       -6.9821930931
 H        -8.4032444024        8.8671190369       -6.7745083702
 H        -7.9993819082        7.4647220163       -5.8410706000
 H        -8.5939094653       10.6510938434       -1.3589587802
 H        -6.8106335486       11.1888312763       -1.4438427009
 H        -6.7618192328       10.1976839001        0.7424033822
 H        -6.8539163403        8.6855851381       -0.1213123052
 H       -10.5144693700        7.1008831185        0.9908368711
 H       -11.2756211214        7.2815962400        2.6073987655
 H       -10.9921391809        5.0009439807        2.7755288483
 H        -9.1796851395        5.1902069348        2.8363870836
 H       -11.2225036076        0.4840848185        0.5554490977
 H       -12.3192111284        0.6806876973        1.9528212123
 H       -10.9486042658       -1.3240181587        2.8078556236
 H       -10.6397363026        0.2487623230        3.6316802017
 H        -8.5385594973       -3.0343824785        0.7446993072
 H       -10.4619862899       -2.7898814263        0.8771642599
 H        -9.3191255358       -5.2954807313        1.6369975501
 H        -9.8141634138       -5.0994653959       -0.1017888219
 H       -12.0465032108       -7.3353005650       -1.1499922425
 H       -12.9209183177       -8.3235366311       -0.1510720860
 H       -11.5725006208       -8.9130286189       -1.0208168452
 H       -10.3012538189       -6.6143101053        3.2684199187
 H       -11.7009976033       -7.6850865345        3.4312460821
 H       -12.0506768335       -5.9587796642        3.7010084346
 H       -13.8017266903       -5.7249796570        1.5908893935
 H       -13.7762533019       -6.9718497087        2.9281096747
 H       -13.8764914122       -7.5157733041        1.3332433814
 H        -6.9541178612       -3.5190322178        3.2772044661
 H        -6.4185498577       -1.9456935575        3.9835993456
 H        -6.6783505036       -2.2002129344        2.2649067075
 H        -8.5691532969       -2.7260155706        5.6471430231
 H        -9.9130641880       -1.6312415380        5.0899432019
 H        -8.1703178588       -1.0569958021        5.3584576271
 H       -11.2640599329        2.2570310219       -0.9980074692
 H        -9.4438783927        1.7505535983       -1.0153792688
 H       -10.0038704447        3.2378426084       -1.7346175961
 H        -7.9699024886        3.0338078148       -0.1427666581
 H        -8.3217411837        1.4580587537        0.6232663564
 H        -7.9094925000        2.9237451785        1.6554659624
 H        -8.5672766007       10.1245910571        3.8713523787
 H        -8.0642873687       11.1743319486        2.5061832181
 H        -7.2038681541        9.8580735078        2.9060706002
 H       -11.1107305580       10.6893266115        1.8551315443
 H       -10.9243245374       10.0289678657        3.3931830904
 H       -11.5443745896        9.2425534998        2.0000089491
 H        -5.1423794295        9.0910442392       -4.1207029268
 H        -6.1138881047        9.3027180928       -5.6799333954
 H        -6.2858031677        8.0616669009       -4.5415834625
 H        -6.8090710178       11.7959803260       -4.8809797305
 H        -6.4951699133       11.7638083616       -3.1805387843
 H        -8.2005573714       11.8827460907       -3.9636643685
 H       -11.6689123855        4.4691761743       -3.5470776389
 H       -13.0224341408        5.3766505308       -2.7751017566
 H       -11.5612818375        5.6154514785       -2.1532731206
 H       -12.4806660172        5.5791531879       -6.2034012515
 H       -13.0601223536        7.1355986868       -6.0492497198
 H       -13.7657845472        5.9214541511       -5.0264531063
 Na       -9.7308853873        7.1209573941       -1.6408230699
