117

 C       -13.6811128847        8.5235865204       -3.7243050362
 C       -12.3451279692        7.8423958418       -3.3531993970
 O       -11.6406757968        8.1004007620       -2.4000209567
 C       -11.8796373718        6.5964012418       -4.3250916361
 C       -10.3672001483        6.9753126966       -4.7515912994
 O        -9.4373913893        6.6758795913       -3.9480361477
 C       -10.0172807708        7.6211458261       -5.9851220095
 C        -8.5534429062        8.1958110306       -5.8261260590
 C        -8.5718892206        9.3039741545       -4.7922996478
 O        -9.7211402930        9.5948167947       -4.3350020762
 C        -7.2859072542        9.7924559810       -4.0419751376
 C        -7.4547806210        9.3479816382       -2.6202061039
 O        -7.3978157921        8.1814466364       -2.2766214444
 C        -7.5955542072       10.3768997971       -1.5530546355
 C        -7.5769672691        9.8328361379       -0.0665417960
 C        -8.8963179243        9.4874927732        0.5230411666
 O        -9.7332467968        9.5217652123       -0.3580319367
 C        -9.2072098413        9.2769986028        2.0134715396
 C        -9.0069605137        7.7871346015        2.3352832167
 O        -7.9367903954        7.3332848083        2.5898531722
 C       -10.2719613254        6.8253470082        2.1872192031
 C       -10.0572327324        5.3230267549        2.2523999313
 C       -10.2680336599        4.6029821305        0.8417405496
 O       -10.4610555744        5.2381226813       -0.1756345623
 C        -9.8586675279        2.9380265154        0.6377969640
 C       -10.6273041955        2.0799164642        1.7134671399
 O       -10.7795680983        2.5612799654        2.8468486215
 C       -11.0657038149        0.6558582124        1.5298174341
 C       -10.6038509577       -0.1970889304        2.7530248985
 C        -9.1662400736       -0.7614201145        2.5764998799
 O        -8.3689596696       -0.2707694600        1.8601446580
 C        -8.7670587038       -1.9646958104        3.4339032666
 C        -9.6630212414       -3.1817299631        2.7550418474
 O       -10.2822636495       -3.8895375302        3.5215051033
 C        -9.5933581608       -3.4891566478        1.3091855495
 C        -9.8606731050       -4.9555818627        0.9452712548
 C       -11.4603943380       -5.3246777346        1.1110194944
 O       -12.2952475941       -4.5459251583        0.7204365923
 C       -11.9373409481       -6.6842446858        1.8215097115
 C       -11.2693168211       -7.8133540499        0.8844912758
 O       -10.1916565261       -8.3020219159        1.1185836936
 C       -11.8843319624       -8.1460747648       -0.4358252316
 C       -11.3538143122       -6.8036078219        3.3668676466
 C       -13.5053211875       -6.5425176225        1.8893787818
 C        -7.2336324909       -2.2050749638        3.1903288244
 C        -8.8948636573       -1.8030274591        4.9383093563
 C       -10.3084134029        2.5746491044       -0.8099649472
 C        -8.3756598886        2.9376110174        0.8575171011
 C        -8.2157168597       10.2107582039        2.8265794912
 C       -10.5932984774        9.8027672568        2.2401117630
 C        -6.0468190066        8.9811490394       -4.6541695787
 C        -6.9877764440       11.3556652352       -4.2100022944
 C       -11.8708134676        5.4711626801       -3.2455951915
 C       -12.8688176712        6.1563637092       -5.3567008317
 H       -14.5795052503        7.8381110647       -3.7109975681
 H       -13.5873542383        8.9866053570       -4.7198211145
 H       -13.7839599167        9.3066777807       -3.0847047484
 H       -10.6369783398        8.4744464139       -6.1198542852
 H       -10.2082529522        6.9319447708       -6.8581152905
 H        -8.1151067825        8.5530123811       -6.6881019175
 H        -7.8626348871        7.3578721364       -5.5211025139
 H        -8.5756942827       10.8655654411       -1.8272312064
 H        -6.7337406761       10.9963144521       -1.6231418715
 H        -7.1132260862       10.5194641632        0.6367926462
 H        -6.8325965058        8.9383660729       -0.0666742109
 H       -10.6499637018        7.1078784679        1.2006146227
 H       -10.9915998991        7.1549942855        2.8327816889
 H       -10.8766909605        5.0903581292        2.8975607691
 H        -9.0915322916        5.0231458806        2.6757786477
 H       -10.9513395611        0.3532036091        0.5773984642
 H       -12.1293601653        0.6688342615        1.6752528979
 H       -11.1524664318       -1.1449129722        2.9158725103
 H       -10.5648555189        0.3946560894        3.6073989346
 H        -8.6271207365       -2.9885951960        1.1350859082
 H       -10.5586057577       -3.1357567390        0.8196086490
 H        -9.2308230680       -5.4846624336        1.5993044555
 H        -9.6763165914       -4.9296839414       -0.1048873678
 H       -11.7214499906       -7.4592548653       -1.3576713702
 H       -12.9820155278       -8.2497238807       -0.4613441806
 H       -11.4836056035       -9.1319359842       -0.7845865240
 H       -10.2650627877       -6.8019321832        3.2966576301
 H       -11.7893376869       -7.7736913371        3.6737283904
 H       -11.8369488030       -6.0027421609        3.8446025683
 H       -13.6055953561       -5.5194951421        2.0919394450
 H       -13.7666814648       -7.1141202363        2.8476982456
 H       -14.2191031047       -6.9097898278        1.2231594103
 H        -6.9842377418       -3.3121133932        3.0963906468
 H        -6.6010446329       -1.8093896289        3.9140948589
 H        -6.8972932451       -1.8293052567        2.2296066094
 H        -8.4333902147       -2.6959632593        5.3888040705
 H       -10.0032564770       -1.8155219370        5.1726660733
 H        -8.3169526184       -1.0603176780        5.3413559623
 H       -11.2870960483        2.0958012183       -0.9052218121
 H        -9.5007239136        2.0752924030       -1.1421604059
 H       -10.2993162997        3.5040324310       -1.3034998200
 H        -8.0141314661        3.7994562495        0.2299553510
 H        -7.9477246250        1.9370070999        0.6266662646
 H        -8.2176698125        3.1700053120        1.9238744778
 H        -8.2749837067       10.0709372360        3.9210245499
 H        -8.2313405789       11.2929595913        2.6126754354
 H        -7.1093309315       10.0447481328        2.6831480453
 H       -10.7227633189       10.8652454166        1.9917197100
 H       -10.9457262136        9.8202789198        3.2799895016
 H       -11.4925308427        9.5510873501        1.5834611224
 H        -5.2309010249        9.3506984729       -3.9893628965
 H        -6.0310912237        9.1790137728       -5.7434880440
 H        -6.0487231857        7.9239171305       -4.4459907874
 H        -6.7909161087       11.5014536927       -5.2805813772
 H        -6.2030076018       11.8656812069       -3.6133683488
 H        -8.0199816878       11.6916105464       -4.1745918232
 H       -11.6997727559        4.4818741811       -3.5519653222
 H       -12.7564364397        5.5781536292       -2.6716797517
 H       -11.2370301560        5.7615550931       -2.4602107602
 H       -12.4428726347        5.5391577263       -6.1592515169
 H       -13.2846208733        6.9463578448       -5.9558909796
 H       -13.7193899468        5.6294525448       -4.9404032144
 Na       -9.5910484117        7.1562100484       -1.5844842041
