117

 C        -8.9578918641       -4.3653253660        7.1586040628
 C        -8.1286508039       -4.0324208543        5.9160847811
 O        -8.6029113928       -3.9062795921        4.8312675442
 C        -6.4782737410       -3.8385454550        5.9863117385
 C        -6.4172025723       -2.4196811441        6.4869755939
 O        -6.2096659529       -2.1913738490        7.6881088088
 C        -6.8012491877       -1.3431240651        5.3841828220
 C        -6.1547353225        0.0745404399        5.4198625816
 C        -7.2236283250        1.1722294029        5.2771030528
 O        -8.3764818146        0.8768508300        5.3459744402
 C        -6.6769937507        2.6801412133        5.0036357146
 C        -6.6108018445        3.0385522134        3.5361337565
 O        -5.5323928798        3.3754884806        2.9899299239
 C        -7.9345526282        3.0207677738        2.7369072536
 C        -7.6936567561        3.3129427306        1.2293562232
 C        -8.7968223096        3.3522280567        0.1698552902
 O        -8.7757925132        4.1601942876       -0.7690359819
 C        -9.9433103496        2.1854089154        0.1129535266
 C       -11.1358401735        2.4976780807        1.1600269940
 O       -10.9408344029        2.9562723485        2.2593249113
 C       -12.6322832723        2.1460175302        0.8743603719
 C       -13.5115367726        3.5126368762        0.7402565617
 C       -12.9106993903        4.4800467315       -0.2187554464
 O       -11.7108018746        4.5448936335       -0.2469288231
 C       -13.7716344415        5.5159032200       -0.9912796571
 C       -13.4753948583        5.4418872898       -2.5906906162
 O       -12.3889928345        5.1187573349       -2.9495141588
 C       -14.4798756809        5.7942990156       -3.6722854401
 C       -13.8086974471        5.9899436577       -5.0927791906
 C       -13.6849275036        7.4292742786       -5.5078783872
 O       -14.3549328008        8.3156200714       -4.9408630864
 C       -12.7081524130        7.8552583695       -6.6921090180
 C       -11.4960208215        8.1165785299       -5.6860919754
 O       -10.6088110787        7.3065757543       -5.7456566427
 C       -11.4599159991        9.1464688361       -4.5313278556
 C       -10.0293080243        9.3184059627       -4.1100958883
 C        -9.5440695665        8.0064986337       -3.4832925494
 O       -10.2038686584        7.5720046944       -2.5545969904
 C        -8.1453226335        7.2527250205       -3.7637095445
 C        -8.3484640761        5.7903979864       -4.3976031679
 O        -9.3978398905        5.1937858400       -4.1444838446
 C        -7.3031596440        5.1884395514       -5.3110662535
 C        -7.1992765283        8.0460124033       -4.6744184788
 C        -7.3396594301        7.0393462010       -2.3971587476
 C       -12.2544039191        6.9005948149       -7.8068746260
 C       -13.2412165934        9.3206234166       -7.2056671631
 C       -15.3062910049        5.2216012514       -0.8663433738
 C       -13.3359995780        6.9125175852       -0.4958685183
 C       -10.3749061810        2.0021180075       -1.3520258525
 C        -9.4198585685        0.7769857696        0.5613258981
 C        -7.7889726818        3.5138455718        5.6415821424
 C        -5.4236457777        2.8448236119        5.8786322484
 C        -5.9165997481       -4.7983739847        7.0153390924
 C        -5.8402938219       -4.1581185692        4.5442139621
 H       -10.0067495763       -4.1937217891        7.1763596060
 H        -8.5297257800       -3.8414961768        7.9702886655
 H        -8.7671313693       -5.4556027511        7.3979480421
 H        -7.8934579650       -1.1358291636        5.3583727797
 H        -6.5935510644       -1.7329603044        4.3589204105
 H        -5.3467801011        0.3637601074        4.7529729223
 H        -5.7838434357        0.4280390961        6.4728114837
 H        -8.6547327803        3.7767917249        3.0967203008
 H        -8.5298740650        2.0555427333        2.8771887584
 H        -7.0043991158        2.5251756858        0.9054266885
 H        -7.1151848096        4.2427584671        1.1662094190
 H       -12.9298321960        1.6312776399        1.7945066375
 H       -12.7376981226        1.6694120174       -0.0899761859
 H       -13.6127726678        3.9761238918        1.7513955560
 H       -14.5292904794        3.1930421128        0.4656277183
 H       -15.1039807734        6.6124183497       -3.2650958963
 H       -15.0679624494        4.8847992459       -3.7261021112
 H       -14.4034321570        5.4035838872       -5.8258507498
 H       -12.8250011212        5.5125688872       -5.2227378794
 H       -12.0992704562        8.8689731207       -3.7274008807
 H       -12.0019898650       10.0246466772       -4.9867558766
 H        -9.8316377680       10.1833919962       -3.4293965866
 H        -9.4472726673        9.4837035044       -5.0461042311
 H        -6.9709908500        5.9935978619       -6.0575238867
 H        -7.5934973274        4.2271620633       -5.6001489801
 H        -6.4436829306        5.0017767375       -4.7234309436
 H        -7.3365959951        9.0749704977       -4.3648177198
 H        -7.5259756598        8.0480784154       -5.7243124999
 H        -6.1317600318        7.8838385189       -4.6272008786
 H        -8.0310398763        6.9731422199       -1.5494213923
 H        -6.8045935849        7.9916999467       -2.3258813229
 H        -6.6889280854        6.1034842998       -2.2630700648
 H       -11.6987503020        6.1258561516       -7.2721274119
 H       -11.6147863769        7.3554029034       -8.5192037771
 H       -13.0653280121        6.4158837581       -8.3354043550
 H       -12.4509764164        9.9577311386       -7.5035038668
 H       -13.8473488101        9.7380512016       -6.4437800173
 H       -13.9653516624        9.1937669166       -7.9783160985
 H       -15.6149548253        5.3083547131        0.1925720745
 H       -15.5806878220        4.2245448324       -1.1906950056
 H       -15.8933310031        6.0256585914       -1.3467187294
 H       -13.6188521658        7.0498455687        0.5296148597
 H       -13.7134176412        7.6442035015       -1.1072990518
 H       -12.3040656731        6.8934755314       -0.5197427337
 H       -11.2542454241        1.3677644262       -1.3681399938
 H        -9.5610933672        1.4735202764       -1.9287173178
 H       -10.5927909037        2.9849002622       -1.9080210216
 H        -8.8593268444        0.7548402319        1.5194261352
 H        -8.6730614672        0.4580596277       -0.2230550376
 H       -10.2952973654        0.1594790310        0.5995961034
 H        -7.9853910628        3.2112442921        6.6546631815
 H        -8.6319443749        3.3104165383        5.0535389078
 H        -7.5902276577        4.5777234274        5.5044330312
 H        -5.7607219301        2.5928872434        6.8392701308
 H        -5.1621964487        3.8817749727        5.8136937744
 H        -4.6331048874        2.1979797546        5.5955277617
 H        -6.3143739432       -4.4006963665        7.9735420298
 H        -4.8128256127       -4.7122175368        7.0343080638
 H        -6.2246173131       -5.8545482089        6.9568700513
 H        -6.1116284047       -3.5349885589        3.6681320500
 H        -6.1857347393       -5.1051622484        4.2315006293
 H        -4.7773399125       -4.1676305610        4.5678703003
 Na      -10.2173861720        5.3296506632       -2.0283056173
