117

 C       -13.1843701015        8.6546249271       -3.8393643399
 C       -12.1827672030        7.6038492348       -3.2322700496
 O       -11.8543533222        7.7174258111       -2.0921877752
 C       -11.8391156491        6.4530342259       -4.1393044511
 C       -10.2075089983        6.8087693551       -4.4866687719
 O        -9.3377881390        6.6911904998       -3.6316088379
 C        -9.9166412013        7.1870182630       -5.9672709628
 C        -8.6229280954        7.9879609840       -6.0969005194
 C        -8.4180506266        8.9591532921       -4.9621314430
 O        -9.4181141757        9.5713289035       -4.3900450726
 C        -7.1016332582        9.3451510030       -4.3692367508
 C        -7.4265016166        9.4194218992       -2.7873302258
 O        -7.4677647691        8.2527128435       -2.2661218494
 C        -7.5092853028       10.7459614460       -1.8826172519
 C        -7.5223724565       10.3911054801       -0.2377516571
 C        -8.9404774231        9.5395782497        0.2892500765
 O        -9.7412062604        9.1561441156       -0.4634456678
 C        -9.0903157398        9.4235896139        1.8461766261
 C        -8.9637048166        7.8627677332        2.0184458354
 O        -7.8896178221        7.3688194405        1.8251530165
 C       -10.3450109230        6.9893564990        2.2716204400
 C        -9.9863442337        5.5024404383        2.2274882958
 C       -10.0908907960        4.8292718771        0.9532507157
 O       -10.2194234812        5.4947431681       -0.0596547980
 C        -9.8705076049        3.3513516766        0.7844738743
 C       -10.7362180038        2.5164810926        1.9660635346
 O       -11.0023837899        3.0406039193        3.0586358854
 C       -11.1259013264        0.9929273021        1.5073452800
 C       -10.7939006839       -0.2180692556        2.3937216151
 C        -9.2325078877       -0.6810398232        2.6251534660
 O        -8.3620823354       -0.1232325568        2.1241023527
 C        -9.0087603076       -1.9750368334        3.4749414898
 C        -9.7778873547       -3.2146252604        2.9274819616
 O       -10.6679517761       -3.8089520540        3.6928319487
 C        -9.4328182013       -3.6914135660        1.4337865639
 C        -9.9866687906       -5.1714825972        1.4050920104
 C       -11.4523627083       -5.2301069305        1.3876843984
 O       -12.2064777761       -4.2958270052        1.1844776232
 C       -11.9715868733       -6.7746921439        1.7841395541
 C       -11.4199392974       -7.8839338480        0.7794453481
 O       -10.2934618189       -8.1450385217        0.7894560135
 C       -12.2389376524       -8.1488358286       -0.4811052434
 C       -11.4026449756       -7.0151383898        3.2897128848
 C       -13.5352559896       -6.8015673777        1.9220812768
 C        -7.4994164980       -2.3217984011        3.4014630059
 C        -9.2336954071       -1.6673679620        5.0088225716
 C       -10.1315615178        2.8710990964       -0.6276133107
 C        -8.4131855384        2.8818810567        1.1438322709
 C        -7.9156675638       10.0185426658        2.7219534877
 C       -10.5218405786        9.8511886591        2.3975127223
 C        -5.8571823053        8.4144699175       -4.7135251294
 C        -6.9767885549       10.8195824399       -4.9120964389
 C       -11.9923351676        5.0903073004       -3.4366967236
 C       -12.6750420380        6.4495471466       -5.4110114809
 H       -14.0922096314        8.0096192441       -4.0794064766
 H       -12.8759381564        9.0664966254       -4.7706874218
 H       -13.4932605143        9.4415269730       -3.2399239120
 H       -10.6140950433        7.8577880799       -6.2693772316
 H        -9.8830783160        6.3576923051       -6.7203181616
 H        -8.6221098763        8.4410497378       -7.0952867532
 H        -7.6984814733        7.3486638131       -6.2237427347
 H        -8.5710339653       11.0683561603       -2.0109317219
 H        -6.7627073200       11.4757817389       -2.2036750589
 H        -7.7378522290       11.3566614241        0.2019330159
 H        -6.5982289810       10.0388700813        0.2314482531
 H       -11.2206073583        7.3876196825        1.6483556754
 H       -10.7064918904        7.2604007536        3.3274486006
 H       -10.6138942612        5.1075872002        3.0062732073
 H        -8.9081702697        5.3433592932        2.5737880373
 H       -10.8088341689        0.8118488099        0.4702056345
 H       -12.3010622187        1.0490502521        1.2548838969
 H       -11.3056003140       -1.1554484704        2.0587629317
 H       -11.0190608291       -0.0986631634        3.4650827951
 H        -8.3508854539       -3.7464814522        1.4524593464
 H        -9.8052967519       -2.9534310941        0.6951947972
 H        -9.5238602638       -5.5932375336        2.2831314886
 H        -9.6002308089       -5.4991817142        0.4417007977
 H       -11.8409982262       -7.6902217881       -1.3308760145
 H       -13.1993617281       -7.7912995138       -0.5626790819
 H       -12.3025518962       -9.1479570679       -0.6865943663
 H       -10.4367480587       -7.4417201224        3.0780120916
 H       -12.1708697808       -7.6996461527        3.7395876068
 H       -11.2927267270       -6.0211647273        3.8064923939
 H       -13.8794903143       -6.7720640180        2.9582703042
 H       -14.1404926986       -7.6997267031        1.4205378346
 H       -13.9884660884       -5.9159020075        1.5028168002
 H        -7.2239146347       -3.1725044085        4.1830434482
 H        -6.8694015265       -1.4440868765        3.6377924913
 H        -7.1583369883       -2.6420539829        2.4437291979
 H        -8.9160423209       -2.4281960155        5.7924086123
 H       -10.2789400177       -1.2530140949        5.0324873307
 H        -8.5871711279       -0.8629448751        5.1873296758
 H       -11.2631442552        3.0408937158       -0.6338267060
 H       -10.0016344913        1.7983854293       -0.6277865164
 H        -9.6001119264        3.4890343843       -1.4038588315
 H        -7.8235341330        3.4212036376        0.4863830897
 H        -8.3273424371        1.8253587791        1.0429371345
 H        -8.2196263629        3.1684860533        2.1763026584
 H        -8.1205892970        9.8538271507        3.7634861602
 H        -7.5175762065       11.0193892134        2.6903183529
 H        -7.0702952958        9.4175017222        2.6224891595
 H       -10.7787895743       10.8999662708        2.4565878264
 H       -10.7247390147        9.5135006842        3.3771998198
 H       -11.3762724828        9.4789837888        1.8345889650
 H        -5.0286306185        9.0168000343       -4.2779387683
 H        -5.7015396612        8.4792956455       -5.7734828165
 H        -5.8861423554        7.4427727912       -4.3063538322
 H        -7.0024322333       10.9626773828       -5.9446125014
 H        -5.9164454184       11.0505240294       -4.6127984779
 H        -7.7379624943       11.4092276169       -4.4813442894
 H       -11.5975850832        4.3309063803       -4.1527075224
 H       -13.0494022904        4.7244487910       -3.1804592657
 H       -11.3881578444        5.0598919833       -2.4690264331
 H       -12.5359119262        5.5677669906       -6.0604310875
 H       -12.6407225021        7.2982310800       -6.0915984322
 H       -13.7607458082        6.3348060924       -5.2238397134
 Na       -9.7226314580        7.2703261756       -1.4839082623
