117

 C       -12.6674022824        8.8644465157       -3.7148926979
 C       -12.3367359006        7.5107811869       -3.2123650975
 O       -12.1625273665        7.2798820710       -2.0467081487
 C       -11.7842035485        6.3848867692       -4.2936196386
 C       -10.3233065031        6.6299470599       -4.6007219802
 O        -9.5560818056        6.4410848466       -3.6718677179
 C        -9.8899654278        6.8670342858       -6.0763432612
 C        -8.4973537186        7.5057244924       -5.8884180802
 C        -8.4531971614        8.8494297424       -5.0433117175
 O        -9.4545274174        9.5143487953       -4.7909985820
 C        -7.1752688485        9.0865135644       -4.2312976046
 C        -7.4835289724        9.2927905281       -2.7830736316
 O        -7.2189926347        8.3154019715       -2.0203562923
 C        -7.8180965361       10.6706543629       -2.1796060608
 C        -7.7030751004       10.5962904146       -0.5799693021
 C        -8.8457439554        9.8185200294        0.1093325785
 O        -9.7624678405        9.5332479222       -0.6669314048
 C        -8.8098010450        9.5390573851        1.5785509564
 C        -8.9101762638        8.0290487029        1.6189768600
 O        -8.0198196239        7.4483032960        1.0180008448
 C        -9.9824724809        7.2651418683        2.4122328053
 C        -9.7447201221        5.7257968747        2.5355413867
 C        -9.9483912255        4.9515181566        1.1937184580
 O       -10.0631548911        5.5773642797        0.1651914233
 C        -9.6485424454        3.3201013345        1.0550589446
 C       -10.6602120066        2.4948804228        1.9044914582
 O       -11.2261080049        3.0026078823        2.8788764968
 C       -11.0482003684        1.0820545745        1.4734317867
 C       -10.8258269495       -0.0080437306        2.4907528044
 C        -9.3299583528       -0.5396474272        2.6675949712
 O        -8.3549067223       -0.0847856937        2.1607441414
 C        -9.1521700182       -1.7993066419        3.5825195136
 C        -9.8872522780       -3.0712496992        3.0902294867
 O       -10.8471000931       -3.4858353959        3.8600909672
 C        -9.5459438110       -3.7102168137        1.7506789949
 C        -9.9937359507       -5.1801479439        1.6354915316
 C       -11.5378647767       -5.3911432068        1.6164492766
 O       -12.2438897014       -4.4259390834        1.3986676470
 C       -12.1276076613       -6.8635943405        1.8998927809
 C       -11.5746085478       -7.7463019903        0.6875219446
 O       -10.4159430233       -7.9574224656        0.5988942492
 C       -12.6073182461       -8.0137357906       -0.3941764945
 C       -11.5497567012       -7.7377960370        3.1379428896
 C       -13.6721736261       -6.7320662474        1.9066422048
 C        -7.6595394665       -2.0256804671        3.8068271601
 C        -9.9063154238       -1.4951744828        5.0038975493
 C        -9.9563872457        2.9553980910       -0.4898807804
 C        -8.1854163392        3.0310227057        1.2267846487
 C        -7.4993295012        9.9837370615        2.1791392624
 C        -9.9551512416       10.3305360218        2.0617335495
 C        -5.9860754401        8.0054092224       -4.3530704022
 C        -6.5903110311       10.4621199977       -4.6251556425
 C       -11.8310887839        5.0060071354       -3.5914794139
 C       -12.6327625458        6.2905848866       -5.5439088616
 H       -13.5937463132        8.9015520802       -4.3978336848
 H       -11.8281909281        9.4077235228       -4.1771273912
 H       -12.9662745498        9.4310413043       -2.8437773671
 H       -10.4852017979        7.4863212793       -6.7243586905
 H        -9.7321972841        5.8794828004       -6.5799119391
 H        -7.9375407765        7.6131241928       -6.8550562515
 H        -7.8856705117        6.7560506029       -5.4238421893
 H        -8.8348086566       10.9000226326       -2.5143241711
 H        -7.1601415427       11.5341676062       -2.5672513949
 H        -7.8501811984       11.6696980565       -0.2219366447
 H        -6.7404751548       10.3307938616       -0.2268827975
 H       -10.9370140785        7.4635762034        1.9862786159
 H       -10.1132625642        7.8594288100        3.3773642037
 H       -10.5580000804        5.4277036654        3.2121538012
 H        -8.8360427166        5.5558209200        3.0878623429
 H       -10.4962782734        0.9769659799        0.5437638220
 H       -12.1358860044        0.9574922649        1.1891639372
 H       -11.4255823490       -0.8840811113        2.4132701090
 H       -11.1065444044        0.4122288126        3.4766091966
 H        -8.4257237404       -3.6625128567        1.7217873433
 H        -9.9029849118       -2.9937139639        1.0169279555
 H        -9.4837736483       -5.7978482972        2.4252306405
 H        -9.4776324889       -5.4454837810        0.6561916834
 H       -12.1964275340       -8.3489037056       -1.4003202270
 H       -13.1404347926       -7.0649452507       -0.7374693527
 H       -13.4710183190       -8.7216111457       -0.1543045086
 H       -10.5092054405       -7.8354175296        2.9909925915
 H       -12.0769337862       -8.6319686150        2.8673636992
 H       -11.8855582697       -7.3197860748        4.1623940762
 H       -14.1847003944       -6.1572193342        2.5979859436
 H       -14.0997728102       -7.7415765043        2.1399028128
 H       -14.0132874927       -6.4187474238        0.9605068407
 H        -7.6386698161       -2.9146187754        4.4571412473
 H        -7.1986319597       -1.2506913577        4.4472690555
 H        -7.0869869228       -2.1436255042        2.9429236592
 H        -9.6194995754       -2.3675908334        5.5989960484
 H       -10.9469619248       -1.4025272480        4.8494574167
 H        -9.5369080624       -0.6169430004        5.4481932086
 H       -10.9410927591        3.2353808987       -0.8161173680
 H        -9.8603555729        1.8836088250       -0.6563886534
 H        -9.1815274053        3.5032586997       -0.9846604318
 H        -7.6615212869        3.2710812264        0.3301207161
 H        -8.1766000003        1.9273160346        1.4626523379
 H        -7.8325294655        3.5799245148        2.1624462222
 H        -7.4268530425        9.7912642136        3.2831251855
 H        -7.6263578175       11.1021012872        2.2954668625
 H        -6.5204316723        9.8150674016        1.8656624297
 H        -9.7841411774       11.4267148441        1.7814390829
 H       -10.1022944790       10.3162802809        3.1437573176
 H       -10.9568048790       10.0308045588        1.8252226258
 H        -4.9588185450        8.2751742281       -4.0254556147
 H        -5.8546583059        7.8650323286       -5.4262969659
 H        -6.5101299145        7.1640079939       -3.8839212481
 H        -6.0582534214       10.3452010628       -5.6102681834
 H        -5.7371723613       10.6374787787       -3.9287606011
 H        -7.4195172674       11.1857192951       -4.7264271526
 H       -11.5081817232        4.1984571351       -4.1670467661
 H       -12.8390408890        4.7419053892       -3.4160504811
 H       -11.1984075900        5.0440425427       -2.7180109297
 H       -12.4070882631        5.6087493718       -6.3123915575
 H       -12.7249563454        7.2751891401       -5.9543870667
 H       -13.6557838212        6.0012384342       -5.3853779756
 Na       -9.7210191557        7.0646623409       -1.2895840703
