117

 C       -12.4211822641        8.7502487737       -3.8110314575
 C       -12.2690288591        7.3265264152       -3.2552437263
 O       -12.1317492276        7.2032030026       -2.0638857218
 C       -11.8546945568        6.1932028790       -4.2691607441
 C       -10.3481211061        6.5596879030       -4.5576277275
 O        -9.5827214753        6.5311351715       -3.5948374881
 C        -9.8593513826        6.9346372063       -5.9544122890
 C        -8.3731771322        7.3714310902       -5.9809997848
 C        -8.2295600417        8.5896246167       -5.0296706324
 O        -9.1249557624        9.3700133338       -5.0737271491
 C        -6.9200793900        9.0279857857       -4.1370120516
 C        -7.3519328780        9.2547689604       -2.6899615979
 O        -7.5724393210        8.3833008094       -1.9509156530
 C        -7.9294292793       10.5920188495       -2.2883105522
 C        -7.9504678190       10.9603564638       -0.8762469078
 C        -8.8609802982        9.9581521250       -0.2016065148
 O        -9.8679905296        9.5079008973       -0.7776002364
 C        -8.7137459700        9.5082100226        1.4118371051
 C        -8.8634646547        7.9255478975        1.4586258192
 O        -8.1599664837        7.2496956868        0.7145783974
 C        -9.5967790819        7.2335218539        2.5200504761
 C        -9.5650591232        5.6631710252        2.4457881761
 C        -9.8354817380        5.0645437453        1.1107799929
 O       -10.2828924159        5.7287203760        0.1749919780
 C        -9.5995178078        3.5737229709        1.0421367363
 C       -10.6014874096        2.6039499230        1.9471113834
 O       -11.1687663858        2.9166661626        2.9389229211
 C       -10.7264428903        1.1008883037        1.3558607147
 C       -10.9566400772        0.1795245891        2.5980160641
 C        -9.5761240412       -0.6010247124        2.8514028235
 O        -8.5552141308       -0.3246715469        2.1390686295
 C        -9.4253780617       -1.6910818336        3.9721828008
 C       -10.1206714919       -3.0829020547        3.3261096646
 O       -10.9810934576       -3.5588476564        3.8687769937
 C        -9.5904474393       -3.7722269330        1.9396411233
 C       -10.0581259658       -5.1943503664        2.0499286908
 C       -11.4532642508       -5.3916075521        1.7578582601
 O       -12.2522252800       -4.5362351875        1.4875909628
 C       -12.1188023654       -6.8414072361        1.8364386920
 C       -11.7934647743       -7.6795661681        0.5114962676
 O       -10.5176697047       -7.8146098801        0.3316525557
 C       -12.7786445976       -8.0522537926       -0.5584567934
 C       -11.5563328401       -7.5667355964        3.0798254821
 C       -13.6799177645       -6.7229816185        2.0350332085
 C        -7.8666950289       -2.0062238623        3.9544025358
 C        -9.9887848133       -1.1915953742        5.2585129135
 C        -9.7786027248        3.1441444328       -0.4500976782
 C        -8.1389273398        3.2627595744        1.6953866891
 C        -7.3522453173        9.9204298697        1.9773979154
 C        -9.8162830115       10.2035214570        2.2253399140
 C        -5.8958015913        7.8293175961       -4.1984587380
 C        -6.3514723754       10.1364791556       -5.0264684850
 C       -12.1100258363        4.7722788249       -3.6206529155
 C       -12.8884939044        6.3874123263       -5.4333561074
 H       -12.9199860200        8.9329195635       -4.6616692248
 H       -11.3620944137        8.9414677278       -3.9971355217
 H       -12.7139031912        9.5598910770       -3.0595477690
 H       -10.4925400517        7.7694049940       -6.3756179815
 H       -10.0052532447        6.1046080428       -6.5900605232
 H        -7.8528255383        7.5890235662       -6.9128110645
 H        -7.8222443350        6.4868703844       -5.5604440738
 H        -8.9384146793       10.5759173622       -2.7635177709
 H        -7.4546252294       11.3440393370       -2.8662460379
 H        -8.2540889754       11.9641671771       -0.7608582369
 H        -6.9353045066       10.8578115499       -0.4225928645
 H       -10.6948874480        7.6070662756        2.4565132718
 H        -9.3334565102        7.6988354570        3.4721312574
 H       -10.1418004211        5.2104971765        3.2641731424
 H        -8.5150121304        5.5035936509        2.7684291819
 H        -9.7029547418        0.8582920806        0.9251671942
 H       -11.3997496167        0.9918665282        0.4948445510
 H       -11.7532778839       -0.6001871560        2.6183338622
 H       -11.1783206185        0.7616178503        3.4844794070
 H        -8.5599051368       -3.5442323286        1.8382431041
 H       -10.0815116662       -3.2626884359        1.1021832592
 H        -9.9345387316       -5.5574748563        3.0761080556
 H        -9.4206945746       -5.8765365997        1.4314360023
 H       -12.5514432895       -8.9384619207       -1.0192560309
 H       -12.6220968302       -7.3826210518       -1.3754527895
 H       -13.7928356909       -7.9974382856       -0.3710038287
 H       -10.4086702069       -7.4828406797        3.1453102262
 H       -11.8976236680       -8.6310598591        2.9880143314
 H       -12.0734502141       -7.0752993718        3.8849220954
 H       -13.9253003004       -6.2117375115        3.0330558016
 H       -14.0795018733       -7.6440725507        2.3061056563
 H       -14.3642636964       -6.2190979148        1.2848250272
 H        -7.6761511720       -2.8775667046        4.5505563527
 H        -7.3250530826       -1.1998668687        4.4508094946
 H        -7.4579014813       -2.0713677283        2.8748682695
 H        -9.5047030223       -1.8245625314        5.9682919583
 H       -11.0697877808       -1.3400950057        5.2851770802
 H        -9.8184525928       -0.0445990684        5.2641861134
 H       -10.6622007298        2.4904048685       -0.5573340371
 H        -8.9004278932        2.4154692877       -0.5850690336
 H        -9.8080695086        4.0019850817       -1.1942829350
 H        -7.4945538261        4.1616628230        1.4945132374
 H        -7.7800605805        2.4006050567        1.2043274749
 H        -8.2186884396        3.1290779934        2.7231835749
 H        -7.1850848718        9.8447458226        3.0110233442
 H        -6.9912091703       10.8795397924        1.7061909055
 H        -6.5583905544        9.2426171874        1.5761587511
 H        -9.5546605344       11.1585154347        2.4606758351
 H       -10.2315778366        9.7172687316        3.0884856105
 H       -10.7912698210       10.2890699886        1.7601747551
 H        -5.0726304833        8.2288238430       -3.6804193736
 H        -5.4819930243        7.7000031768       -5.2101116592
 H        -6.3704183799        6.9618225992       -3.7377100469
 H        -6.0768103444        9.7389438128       -6.0011397470
 H        -5.4754828497       10.5619506879       -4.5689666792
 H        -7.2313144652       10.7723748169       -5.1884756661
 H       -11.9524756047        3.8835768639       -4.2984371306
 H       -13.1770458551        4.6566614475       -3.3719541847
 H       -11.3454289997        4.5943191253       -2.8691407301
 H       -12.9714153536        5.5019909574       -6.0840065509
 H       -12.8656551131        7.2780736340       -6.0689357185
 H       -13.9176185572        6.3779750976       -5.0842710292
 Na       -9.5137426450        7.4194748018       -1.4133764836
