117

 C       -12.2095081261        8.8188182545       -3.6573649590
 C       -12.1486906784        7.3784308906       -3.1596478913
 O       -11.9484518752        7.0866439282       -1.9899173865
 C       -11.9128273404        6.1979605319       -4.2966455923
 C       -10.3634392168        6.3919664010       -4.5441599662
 O        -9.5968991698        6.5382697172       -3.5923581818
 C        -9.8877852265        6.7464751314       -5.9769595479
 C        -8.4243047847        7.0578457649       -5.8364599790
 C        -8.1162004039        8.4286241483       -5.1502792851
 O        -8.9920465272        9.3160969854       -5.1089475246
 C        -6.7497882420        8.8638303216       -4.3798174492
 C        -7.3091303439        9.3855174152       -2.9520730505
 O        -7.4539460912        8.4238060618       -2.1159002215
 C        -7.8119000763       10.7192903272       -2.6314577566
 C        -8.1271042389       11.0237714873       -1.1203107115
 C        -9.1251385225       10.0366367459       -0.1826417931
 O       -10.1820171907        9.6438069478       -0.6537309598
 C        -8.6006821700        9.5566449696        1.2141255263
 C        -8.6659079500        7.9372641705        1.2809892032
 O        -8.2161247691        7.1755506935        0.4761803505
 C        -9.4658389642        7.2697925196        2.4293122583
 C        -9.4774705665        5.7283654328        2.4878424989
 C        -9.9305792551        5.1172086736        1.2872237319
 O       -10.5617698709        5.7634260055        0.4544288882
 C        -9.5037820660        3.6281450219        0.8881046727
 C       -10.5963754213        2.7548632641        1.8196277019
 O       -10.8537368309        3.3671784672        2.8273456260
 C       -11.0108926012        1.1542670177        1.4840881357
 C       -10.8766734881        0.1469950879        2.5920524914
 C        -9.4370683635       -0.6055607991        2.7164684183
 O        -8.5875227350       -0.5304166321        1.9381581581
 C        -9.4618656039       -1.6669041148        4.0832465174
 C       -10.2974322368       -3.0664692211        3.6924104140
 O       -11.3449435676       -3.3854495844        4.3612055465
 C        -9.7622731244       -3.7712063116        2.4361455813
 C       -10.0833069993       -5.2021287181        2.2481377804
 C       -11.6404349043       -5.4050977671        1.9581069219
 O       -12.2139034083       -4.4794430567        1.3139977786
 C       -12.1793256024       -6.7301656795        1.8834950731
 C       -11.7527652926       -7.4541915542        0.4264147307
 O       -10.6667824772       -7.6611008591        0.1703966725
 C       -12.8859386166       -7.9822949081       -0.5052269788
 C       -11.5594026390       -7.7175320181        2.9116667890
 C       -13.6420713086       -6.7465926002        2.0462281276
 C        -8.0308692025       -2.1264140797        4.5034105493
 C       -10.1679431263       -1.2371067527        5.3773198814
 C        -9.2363385146        3.3943747776       -0.5844846913
 C        -8.1893804952        3.1683540766        1.6688929675
 C        -7.1326821664        9.8761042001        1.6825060039
 C        -9.6978865309       10.1603492378        2.1958537142
 C        -5.8779712135        7.6552664839       -4.0605857882
 C        -5.9480835024        9.8796153703       -5.2238840360
 C       -12.1978594400        4.9143618654       -3.5265309024
 C       -12.7152385411        6.2769266280       -5.5805208973
 H       -13.1540222736        8.9043606191       -4.3536039242
 H       -11.3399346894        9.0406026288       -4.3177217417
 H       -12.2310130864        9.5478943439       -2.9245653798
 H       -10.4023665531        7.5762959795       -6.3995948641
 H       -10.0336581989        5.8625428271       -6.7123816874
 H        -7.8750756552        7.1136646149       -6.7766811559
 H        -8.0169158583        6.2503893543       -5.2330015746
 H        -8.6098392809       10.8665719753       -3.3805442781
 H        -7.0747622733       11.4211273857       -3.1254996492
 H        -8.6663137071       12.0438821731       -1.1482568936
 H        -7.1796964884       11.1820354792       -0.6171228449
 H       -10.4572664762        7.6279737366        2.5902883624
 H        -8.9580563672        7.5624832963        3.3744869087
 H       -10.1434882129        5.5949827665        3.3317313855
 H        -8.5604611206        5.3954154326        2.9364662621
 H       -10.6682884397        0.7437202265        0.6117474897
 H       -12.0800603001        1.4183682474        1.3557956183
 H       -11.5734673141       -0.6916398171        2.4695507301
 H       -11.1906961859        0.4527154631        3.6090224963
 H        -8.6632995389       -3.4851602445        2.5896213347
 H       -10.0145241837       -3.0754705058        1.6003512816
 H        -9.6494787552       -5.7746511309        3.0600123187
 H        -9.6405465468       -5.7044481327        1.3701648838
 H       -13.0043157193       -9.1370399048       -0.4738133913
 H       -12.7511955628       -7.7929453431       -1.5635541576
 H       -13.8991256668       -7.5033726276       -0.3797112373
 H       -10.8262961696       -8.3118940009        2.3961921354
 H       -12.3363864209       -8.3811298282        3.2483122346
 H       -11.2253106996       -7.0752854888        3.7288189290
 H       -13.8911596780       -6.5801378026        3.0441279538
 H       -14.2043884850       -7.7310446224        1.8423216260
 H       -14.1484004091       -6.0110642872        1.5187522156
 H        -8.1849793591       -2.7728172383        5.4421460277
 H        -7.4621100374       -1.2445031073        4.8157457796
 H        -7.4680677248       -2.6267585831        3.7682709938
 H       -10.0993488548       -2.0779763467        6.0973101638
 H       -11.2512054692       -1.2024176369        5.0868205664
 H        -9.9223596553       -0.2727286881        5.5938686434
 H       -10.2074384674        3.2640104309       -1.1004573954
 H        -8.5627211555        2.6730333908       -0.8117631358
 H        -8.9870525908        4.3798212134       -0.9344048455
 H        -7.3189517175        3.6279659399        1.2917161045
 H        -8.1905066425        2.0873298179        1.4479194887
 H        -8.2838113311        3.4285389263        2.7562341690
 H        -6.8384871025        9.2194573106        2.5462928022
 H        -6.7897858199       10.9256763721        1.8938566901
 H        -6.3912071815        9.5673640802        0.9601532463
 H       -10.0249459774       11.2573060907        2.0890043508
 H        -9.5999047681       10.0181252118        3.2826279969
 H       -10.6729567471        9.6352166108        2.1923807307
 H        -5.0573370895        8.0767088518       -3.3831914474
 H        -5.4776347849        7.3002582647       -4.9924609051
 H        -6.4622248833        6.9110903900       -3.5755909265
 H        -5.5540856434        9.4513778185       -6.1555823692
 H        -5.1492922592       10.2306335328       -4.5259296885
 H        -6.6553866657       10.6653064393       -5.3928858640
 H       -11.9687903510        3.9886306263       -4.0174734272
 H       -13.2797619441        4.9138680836       -3.3858124815
 H       -11.5724114985        4.8364479028       -2.6330787659
 H       -12.6883575959        5.3390063057       -6.1386352423
 H       -12.5057224081        7.0683931000       -6.2810988350
 H       -13.7951539763        6.4384343693       -5.4227362720
 Na       -9.7749432399        7.2551747357       -1.3824707626
