117

 C       -12.2300491413        8.8890473793       -3.6080334418
 C       -12.1479045297        7.4316779540       -3.2903193123
 O       -11.9974504873        7.1488382552       -2.0953431815
 C       -11.9251470013        6.3059648821       -4.2482822331
 C       -10.3064134482        6.4796289794       -4.5143808195
 O        -9.5716964841        6.3362074645       -3.5247402081
 C        -9.7079287597        6.6416279601       -5.8239867497
 C        -8.1747350979        7.0425091115       -5.8920126568
 C        -8.0751147838        8.4312695641       -5.1752262111
 O        -9.0752841039        9.1727715699       -5.2662619384
 C        -6.7036051667        8.7105196688       -4.3426322764
 C        -7.2630989613        9.3169127198       -2.9344042048
 O        -7.5143212286        8.5143510877       -2.0320669411
 C        -7.8054677311       10.6986786033       -2.7155061234
 C        -8.1636624102       10.9301184396       -1.2637046606
 C        -9.0641431841        9.8933972312       -0.4747175339
 O       -10.1819052380        9.6362030200       -0.5979348641
 C        -8.6434596716        9.4546019355        1.0954215473
 C        -8.6889397809        7.9857254857        1.1897181573
 O        -8.1485562820        7.3407288453        0.3381997736
 C        -9.3895455392        7.3882278846        2.4863803988
 C        -9.3563489026        5.8215104616        2.5935282315
 C        -9.7988119825        5.1692645650        1.2438627841
 O       -10.7126174601        5.5106168801        0.4740069514
 C        -9.3808764092        3.5669625525        0.9550481815
 C       -10.4813434519        2.7519611102        1.8363501998
 O       -11.0032984301        3.2081588474        2.8026307944
 C       -10.9692062096        1.3230769015        1.5157635170
 C       -10.7958807733        0.3026036202        2.6337859386
 C        -9.5220599479       -0.6940289539        2.8270914676
 O        -8.6902731380       -0.5993358704        1.9863512451
 C        -9.5720182729       -1.6385267959        4.1236539016
 C       -10.3469215132       -2.9554306794        3.8196757703
 O       -11.2860944290       -3.3475295519        4.3817861497
 C        -9.8071046023       -3.7401330684        2.5895178989
 C       -10.2015325526       -5.1560651377        2.3687110693
 C       -11.5729386083       -5.3353874042        1.7150287360
 O       -12.2355161407       -4.3895995822        1.2993706425
 C       -12.2103030391       -6.8312142067        1.7883313448
 C       -11.8214697264       -7.3940158770        0.4618040164
 O       -10.6422511337       -7.5192039008        0.1097328028
 C       -12.9316123259       -7.8411927776       -0.4494761829
 C       -11.5503606426       -8.0070072265        2.9410944341
 C       -13.8342058329       -6.7935180073        2.0999048155
 C        -8.1647888191       -2.0239800813        4.6876538257
 C       -10.3278111900       -0.9700452741        5.4149085937
 C        -9.3164429362        3.4879254547       -0.5607139405
 C        -7.9271852291        3.1097591502        1.6348496122
 C        -7.1877656554        9.8301502394        1.4166662533
 C        -9.5476856651       10.2384055942        2.0440953441
 C        -5.9179004298        7.4688480881       -4.1355399662
 C        -5.8773723230        9.8472628893       -5.1741291467
 C       -12.1382876478        4.8601085367       -3.4683567618
 C       -12.7141058246        6.3443127402       -5.4950998200
 H       -13.1489938160        9.2385094158       -3.9568976071
 H       -11.4352769687        9.3315740202       -4.2916454197
 H       -12.0649921587        9.3586725233       -2.5864919931
 H       -10.2473191489        7.3376212834       -6.3964435146
 H        -9.8614467730        5.6682039673       -6.3682067401
 H        -7.8866366915        7.1271838700       -6.9238349157
 H        -7.5592564620        6.2348415614       -5.3514038222
 H        -8.5443556613       11.0097344957       -3.5398263195
 H        -7.0221186201       11.3718424517       -3.0127958193
 H        -8.6104269511       11.8969516820       -1.1595429098
 H        -7.1537450962       10.9588356263       -0.7838182934
 H       -10.5362073699        7.6601489523        2.6424325066
 H        -8.9186616210        7.8486937285        3.3703754090
 H        -9.9952088292        5.5390899425        3.3796863293
 H        -8.3781537635        5.5182928682        3.0282372843
 H       -10.5231712294        0.8350897895        0.5947423243
 H       -12.0969658206        1.5647476891        1.3227329615
 H       -11.6987756608       -0.3380194584        2.6521107213
 H       -10.8874767331        0.7048671214        3.5993038744
 H        -8.7743937132       -3.5850029265        2.6479509200
 H        -9.9976982514       -3.0975067558        1.7217370892
 H       -10.0472829281       -5.8301084119        3.2295909500
 H        -9.5182579869       -5.7025235006        1.6453890584
 H       -13.2690857224       -8.8009976257        0.0978314626
 H       -12.8195506938       -8.2312861768       -1.5044238840
 H       -13.8570889267       -7.1813648165       -0.5413916018
 H       -10.8965902930       -8.6860500051        2.3366234442
 H       -12.4103219555       -8.6548478634        3.1710139403
 H       -11.2312469704       -7.4940671715        3.7879124513
 H       -14.0110514709       -6.4578454275        3.1250816277
 H       -14.4081431682       -7.6668347331        1.9652652093
 H       -14.4308999967       -6.0843747909        1.5525232144
 H        -8.2789322340       -2.7650813878        5.4717306996
 H        -7.5843360842       -1.2016532109        4.9798474725
 H        -7.6832741021       -2.5100314963        3.7990604518
 H       -10.5820150131       -1.7132956271        6.0897883988
 H       -11.2396318857       -0.4434111843        5.1769397046
 H        -9.6373759320       -0.1758808768        5.6195524214
 H       -10.1874362547        3.8645429971       -1.0894059688
 H        -8.9353267293        2.5228098570       -0.8972948326
 H        -8.5768040376        4.2444330237       -0.8314580790
 H        -7.0537636149        3.3609336385        0.9397289024
 H        -7.9209304988        2.0413114343        1.8917580694
 H        -7.8441759023        3.8038139147        2.4417883811
 H        -6.5563800176        9.3044442912        2.1260038124
 H        -7.0540305823       10.8950308180        1.5928480474
 H        -6.5341775639        9.7531161461        0.4446890823
 H        -9.7666088715       11.2481652634        1.7959792972
 H        -9.0771939202       10.3084800306        3.0432549925
 H       -10.5297190676        9.9080998829        2.4351609634
 H        -4.9452533947        7.6457236233       -3.6018677164
 H        -5.8354918805        7.2456794359       -5.2224993663
 H        -6.5295198505        6.6934501330       -3.6646523272
 H        -5.4685808785        9.4230839285       -6.0948568247
 H        -5.0773052569       10.1300165423       -4.4131412292
 H        -6.5400597313       10.7486033429       -5.3306448197
 H       -11.7690785436        4.0461661328       -4.0573196450
 H       -13.2030997662        4.7175185230       -3.3063817384
 H       -11.5620177284        4.7446852467       -2.5938709300
 H       -12.4075672659        5.5951868799       -6.2365567774
 H       -12.8545325198        7.2564587268       -6.0121733681
 H       -13.7326329928        6.0887045480       -5.2486708322
 Na       -9.8804063665        7.1500622224       -1.2650118095
