117

 C       -12.3240132913        8.9751792778       -3.6808852901
 C       -12.0453642864        7.5705756398       -3.0969878442
 O       -12.1550121534        7.2375803790       -1.9552475228
 C       -11.7680179858        6.3267980693       -4.2911633684
 C       -10.1707567543        6.2949411922       -4.4154133863
 O        -9.5050165060        6.1940367934       -3.4022130698
 C        -9.6139489419        6.4277754109       -5.9029771906
 C        -8.1248060700        6.9947247176       -5.9054942853
 C        -8.0585463331        8.3855114650       -5.1987169014
 O        -8.9529350319        9.1518562412       -5.3079131863
 C        -6.8500586330        8.5656983195       -4.3538791230
 C        -7.4478351446        9.0620276621       -2.9555270176
 O        -7.4666181282        8.3943847083       -2.0141970396
 C        -7.8469948615       10.7309692553       -2.7750395537
 C        -8.2548645421       10.9418791257       -1.2683779874
 C        -9.1168656421        9.9470042045       -0.4920196675
 O       -10.1648670494        9.5656439129       -1.0023562474
 C        -8.5460567964        9.6340184238        0.9345648160
 C        -8.6763524231        7.9815779848        1.1384458553
 O        -8.1812483331        7.1756401330        0.3037577311
 C        -9.3343048589        7.4302229065        2.3944917713
 C        -9.2600815536        5.8292770890        2.4441492032
 C        -9.7656451238        4.9659576675        1.3551616896
 O       -10.6098259892        5.4760719524        0.6199009410
 C        -9.2637074434        3.5878558304        1.1713404431
 C       -10.3908355607        2.6549901180        1.8638755080
 O       -11.0235663668        3.1989619521        2.7784456489
 C       -10.7180046756        1.2520871895        1.3943660542
 C       -10.8187319818        0.5024749390        2.7541599857
 C        -9.7103823708       -0.5203353927        3.0449527957
 O        -8.7909545402       -0.8379585200        2.2007945060
 C        -9.7236939777       -1.4554537525        4.1291555164
 C       -10.4322006310       -2.8576100836        3.7880189944
 O       -11.2690729068       -3.3220352873        4.4858370222
 C        -9.7174906606       -3.7079845760        2.5009086585
 C       -10.2958522455       -5.1321581400        2.5271973213
 C       -11.6812954151       -5.3768741002        1.9121143588
 O       -12.2262456989       -4.5589674339        1.3026680001
 C       -12.2518155012       -6.8864371204        1.8636563230
 C       -11.9445305490       -7.4619342339        0.4617901870
 O       -10.7301804492       -7.3183426455        0.0609696283
 C       -13.0130723727       -7.8135116822       -0.5615816771
 C       -11.6710431552       -7.8623495548        2.7864144766
 C       -13.7207245206       -6.7892800875        2.1463568339
 C        -8.2866141167       -1.8264116309        4.7039378363
 C       -10.4621047169       -0.6567075317        5.3549488815
 C        -9.3890297072        3.3612392319       -0.4152368844
 C        -7.8501287523        3.1774695301        1.5502033876
 C        -7.0015861250        9.8879647474        1.1513446635
 C        -9.3546728005       10.4651955007        1.8737413969
 C        -5.8660452382        7.3546710392       -4.1765697704
 C        -5.9852639611        9.7894893875       -4.9734213461
 C       -12.0055552048        4.9935600324       -3.5859703866
 C       -12.7064492911        6.4067514296       -5.5196144353
 H       -13.3356924675        9.1806526372       -3.9490328148
 H       -11.6950744856        9.1914773138       -4.5302294709
 H       -12.0377989894        9.7470113539       -2.8886101343
 H       -10.2522777749        7.1007552619       -6.5610132552
 H        -9.6131169626        5.5462826968       -6.4180569151
 H        -7.8597426699        7.1305233158       -6.9887936679
 H        -7.4803284523        6.2462085214       -5.4448611173
 H        -8.7435556260       11.0172730750       -3.3570460845
 H        -7.1693445883       11.4516722789       -3.2031231948
 H        -8.9362516024       11.7364125850       -1.2985534481
 H        -7.3766172874       11.2504424665       -0.6933309654
 H       -10.4549506452        7.6791846088        2.3207770853
 H        -8.9916963943        7.9589202982        3.3427219923
 H        -9.5945571616        5.5102555335        3.4441314598
 H        -8.1828373891        5.6542903584        2.6009097246
 H        -9.6463381223        0.9192663839        0.9251670415
 H       -11.5849860367        1.2158823738        0.6664959484
 H       -11.7850610241       -0.0044275352        2.9761770970
 H       -10.7234684735        1.1169859085        3.6655916284
 H        -8.6798177390       -3.5382814340        2.5212105752
 H        -9.9581460181       -3.1474940705        1.6471476281
 H       -10.2685391567       -5.5848555793        3.5675918222
 H        -9.7082634166       -5.9519021236        2.0497885256
 H       -13.8541654517       -8.2781452267       -0.1252709894
 H       -12.8226781426       -8.5060786731       -1.4256120952
 H       -13.3642339789       -6.8849085538       -1.0195812059
 H       -10.8278378922       -8.2010348160        2.1899833921
 H       -12.2741441793       -8.7798461977        2.8016882025
 H       -11.5399897350       -7.3937163949        3.8063942562
 H       -14.1236390646       -6.2642508812        3.0503922515
 H       -14.3004177657       -7.5936959911        1.9364833579
 H       -14.1008139161       -6.1212705236        1.3337708021
 H        -8.3486598344       -2.6471032047        5.3265631074
 H        -7.7611935176       -0.9227115647        5.0819899675
 H        -7.8034750673       -2.1399316327        3.7612027184
 H       -10.8328033181       -1.3910977221        6.0188661753
 H       -11.2981584582       -0.1063805163        5.1184134684
 H        -9.6876024074        0.0955123882        5.6633806942
 H       -10.1313682327        3.9929705533       -0.8399061086
 H        -9.5783259678        2.1828494740       -0.4174124715
 H        -8.4957616010        3.5373564580       -1.0734131252
 H        -7.2933551196        3.3292570871        0.5776194746
 H        -7.8509787519        2.1028757835        1.7128087912
 H        -7.3492304912        3.7947697496        2.2794067704
 H        -6.7131164446        9.5636226243        2.1527036168
 H        -6.6984780854       10.9257944494        1.1273342142
 H        -6.2131553213        9.4371639736        0.4879704767
 H        -9.4563605984       11.4939418190        1.7044457863
 H        -9.1100458775       10.4216786037        2.9195963074
 H       -10.3875235913       10.2145651200        1.9168080619
 H        -4.9968169670        7.6744345035       -3.6681795015
 H        -5.7389111581        6.9398577446       -5.1989972278
 H        -6.4660825709        6.6258315334       -3.5356173260
 H        -5.6735467328        9.1213287595       -5.7949267387
 H        -5.1323823610        9.8499491393       -4.3021353220
 H        -6.3564605823       10.8441657143       -5.2740561865
 H       -11.6302001455        4.2010463143       -4.2369605620
 H       -13.0531144699        4.8680160103       -3.3532363918
 H       -11.4187963409        4.8452525801       -2.6928449511
 H       -12.3403412031        6.1127756886       -6.4880242516
 H       -13.0668663290        7.4260388585       -5.6725669895
 H       -13.6472990769        5.9273115393       -5.3283149734
 Na       -9.9803311264        7.0280075625       -1.1093154783
