117

 C       -12.3639962825        8.8765599534       -3.7189667541
 C       -12.0745389304        7.5238482194       -3.1507383578
 O       -12.2318880934        7.4080800824       -1.9428177375
 C       -11.7123904714        6.4152552594       -4.1237045331
 C       -10.1489644779        6.3493779872       -4.3955484675
 O        -9.3727643178        6.1281022439       -3.4851048418
 C        -9.6473231513        6.2240801457       -5.8609807322
 C        -8.2169337540        6.8110521018       -5.9701168120
 C        -8.0900558796        8.2454249976       -5.2206459273
 O        -8.8767275287        9.1705798589       -5.3883010824
 C        -6.8169373277        8.5616734496       -4.2690629827
 C        -7.4059262892        9.0603916616       -2.7960089485
 O        -7.5149961945        8.1860789973       -1.9720780367
 C        -7.9812101058       10.4233170894       -2.8102977077
 C        -8.3692178087       11.2024459822       -1.5192563953
 C        -9.0034712170       10.0267803522       -0.7348107865
 O        -9.9678067443        9.3694360279       -1.2593435556
 C        -8.4309099717        9.5802254528        0.8162196847
 C        -8.7102714555        7.9616666659        1.1230198761
 O        -8.1852852407        7.1625729957        0.2980357969
 C        -9.3687341458        7.4181894204        2.3407227545
 C        -8.9913504899        5.9729664382        2.5354129056
 C        -9.6356335570        5.0790549710        1.3270283397
 O       -10.5637328942        5.5668535742        0.7256176257
 C        -9.2030596337        3.5330682856        1.0810545216
 C       -10.2886970750        2.7135066984        1.8539949104
 O       -10.9857676984        3.2198043811        2.7169990622
 C       -10.2784390015        1.2414648041        1.5403687927
 C       -10.7849437376        0.4446762407        2.7650945518
 C        -9.7948347297       -0.5973161848        3.0205921441
 O        -8.9128262341       -0.7880819461        2.1450735878
 C        -9.7959719971       -1.3907104154        4.2662609501
 C       -10.4213429935       -2.7703004662        3.8176147863
 O       -11.3074858360       -3.3650040930        4.5303769886
 C        -9.9759376795       -3.6172553729        2.6896331917
 C       -10.3189364198       -5.1191376305        2.7872216035
 C       -11.7072315002       -5.4685076643        1.9554368478
 O       -12.2576683147       -4.5854980006        1.3186560647
 C       -12.3050794834       -6.8824144521        1.8454344636
 C       -11.9779996730       -7.1483395621        0.2875333463
 O       -10.8330099489       -7.2673165782       -0.0309285913
 C       -13.0920668678       -7.7355297782       -0.6525448957
 C       -11.5932019783       -7.8713871353        2.9316307828
 C       -13.8122833098       -6.7033804309        2.1656869251
 C        -8.3908472275       -1.6120541796        4.7578705039
 C       -10.6879215048       -0.6072598192        5.5229061899
 C        -9.5083788536        3.0700065204       -0.4788743614
 C        -7.8155432450        3.2098263062        1.5747049084
 C        -6.9097964044        9.8243629530        0.9275910116
 C        -9.2158432300       10.5074356393        1.7344197749
 C        -5.8854993215        7.3945803262       -4.0210638027
 C        -6.0299178971        9.7605682601       -4.8735889245
 C       -11.9848681692        5.0441647745       -3.5756409292
 C       -12.4773409014        6.5965633781       -5.4189015881
 H       -13.5182814694        9.0560698562       -3.8363998506
 H       -11.9310506287        9.0379707835       -4.6662708676
 H       -12.0399153118        9.6213428021       -3.0985011467
 H       -10.2132388339        6.7349259166       -6.6767001382
 H        -9.6027857273        5.2013452941       -6.2255091865
 H        -8.1266493562        6.9040269649       -7.0916769144
 H        -7.4991976584        6.1680191600       -5.5439750427
 H        -8.7698168444       10.4240485034       -3.5022191792
 H        -7.2847315529       11.0322306191       -3.4477768462
 H        -9.0040667671       12.1134091850       -1.7037373817
 H        -7.4653029656       11.4212334236       -1.0287894136
 H       -10.4083637133        7.3332379545        2.2185571702
 H        -9.2106715462        8.1332155041        3.1961620860
 H        -9.3133860333        5.6010743098        3.5647457221
 H        -7.9208187457        5.9651854454        2.6898182376
 H        -9.3002678349        0.9688485972        1.1196529714
 H       -11.1140730531        1.1005612053        0.8902392816
 H       -11.7558807348        0.0398683572        2.4349698044
 H       -11.0754419401        1.0146063444        3.7018353082
 H        -8.8542958500       -3.3463856016        2.5618616165
 H       -10.3351380395       -3.1600675106        1.7762972700
 H       -10.4965515444       -5.5604551272        3.7802622170
 H        -9.4804215431       -5.7195707662        2.4634891242
 H       -14.0796320663       -7.9765898432       -0.3826147594
 H       -12.7084622162       -8.6228908968       -0.9657247023
 H       -13.1281642688       -7.2047746789       -1.5361526374
 H       -10.5474290102       -7.6723946555        2.7364921138
 H       -11.6752089542       -8.9503773556        2.7244971779
 H       -12.0354793533       -7.5168132540        3.9445021010
 H       -14.1389459328       -6.1960078821        3.0595682954
 H       -14.3991559416       -7.6917856904        1.9313264639
 H       -14.3360231972       -6.1182052950        1.3952051076
 H        -8.2880481013       -2.5501085194        5.3502674187
 H        -8.0122020653       -0.6317463298        5.1716589418
 H        -7.9281523630       -1.7606827527        3.8355898872
 H       -10.9774574299       -1.3979726967        6.2945113609
 H       -11.7141721878       -0.4908779044        5.1117430710
 H       -10.2818121494        0.3396918585        5.7872155138
 H       -10.3198950360        3.7916624034       -0.8350740591
 H        -9.7822290404        2.0476311530       -0.5043232439
 H        -8.6789863190        3.1636316789       -1.2796906857
 H        -7.1672146139        3.5928027214        0.8716869710
 H        -7.7276285573        2.1186819147        1.5831359528
 H        -7.5858795817        3.6995089622        2.5589145992
 H        -6.6842544347        9.8313184600        2.0099578517
 H        -6.6380452537       10.8470542398        0.6562179162
 H        -6.1360002254        9.2994280862        0.5316381640
 H        -8.9399337717       11.5948052569        1.6524461115
 H        -9.2154285916       10.4148120726        2.7700484802
 H       -10.2235675117       10.6159994496        1.4939179789
 H        -5.1730888040        7.7552882881       -3.2990926524
 H        -5.4878353123        7.0545505247       -4.9430713599
 H        -6.4774369832        6.6539694033       -3.5062477100
 H        -5.6925732988        9.1906367067       -5.7498343271
 H        -5.2621585620       10.1355229854       -4.2110924536
 H        -6.6396664277       10.6174670002       -5.1739680213
 H       -11.6975817458        4.2914167969       -4.3415427029
 H       -13.0330942838        5.0042046155       -3.2532479133
 H       -11.3888423857        4.7662529852       -2.6573231349
 H       -11.9062963624        6.4109196866       -6.3071353953
 H       -12.8141583071        7.6306869758       -5.6053062307
 H       -13.4388684395        6.0726801143       -5.4434926939
 Na      -10.0967160445        6.9026044628       -1.0359030359
