117

 C       -12.3829588735        8.9996263808       -3.6467659945
 C       -12.0359590642        7.6130775602       -3.1774411348
 O       -12.1567853491        7.4404367432       -1.9943893187
 C       -11.6680416910        6.4233353790       -4.1648972466
 C       -10.0906912270        6.3282889491       -4.2890684327
 O        -9.4759454108        6.4107947332       -3.2553344298
 C        -9.4932966784        6.2352448181       -5.7555770313
 C        -7.9344287611        6.6077178163       -5.8626537907
 C        -7.9063803583        8.0925072880       -5.3052025782
 O        -8.7518990720        8.9218554284       -5.4783150462
 C        -6.8268797577        8.4825499778       -4.3179836480
 C        -7.5041411145        9.0372036509       -3.0664686614
 O        -7.4285062010        8.4232692613       -2.0288367236
 C        -8.0967567472       10.4828433105       -3.1817553484
 C        -8.4933873913       10.7918876282       -1.6939756362
 C        -9.1359976834        9.6319542622       -0.7963856908
 O        -9.9120711874        8.8737424469       -1.2443559316
 C        -8.3369117467        9.5184985659        0.7063306023
 C        -8.5447605203        8.0086711587        0.9585274039
 O        -8.1208402249        7.1969513571        0.1818862628
 C        -9.2039508097        7.5373887956        2.2848778782
 C        -8.8751456719        5.9705915915        2.3567665300
 C        -9.6092344802        5.2176819726        1.3360053609
 O       -10.5160077713        5.6448604357        0.5814963241
 C        -9.2133666667        3.7271336901        1.0823098820
 C       -10.2621105928        2.8850543534        1.9015189573
 O       -10.8687430626        3.5003693420        2.7650324180
 C       -10.3783765564        1.3759612622        1.5449530356
 C       -10.8331725267        0.3205928919        2.6491670741
 C        -9.8973136919       -0.7742793431        3.1034184797
 O        -8.9658813098       -1.0821836960        2.3691414887
 C       -10.0345814303       -1.4756817588        4.4544729266
 C       -10.6463331902       -2.8463712971        4.2678703448
 O       -11.4787646911       -3.2889396010        4.9758993234
 C       -10.1419423307       -3.6788530771        2.9679170147
 C       -10.5746776905       -5.1124716483        2.8901677773
 C       -11.7788880248       -5.2427430508        1.9479608595
 O       -12.2818117548       -4.3369012338        1.3473272079
 C       -12.2860754093       -6.8127778024        1.8412782177
 C       -12.0255210373       -7.0502171649        0.2710860919
 O       -10.8114821773       -7.1339567143       -0.0668987385
 C       -13.1628768477       -7.5418028156       -0.5483308312
 C       -11.6410264642       -7.8091704508        2.7635986473
 C       -13.7728863937       -6.7864913839        2.1313147831
 C        -8.4738018020       -1.5327723005        5.1271331621
 C       -10.9337786779       -0.8288196006        5.5073387952
 C        -9.2396530232        3.5941639288       -0.4261142963
 C        -7.7010467489        3.3288288365        1.4740305792
 C        -6.7953579993        9.6635971182        0.6423825429
 C        -9.0868156365       10.5709356871        1.5941784149
 C        -5.8414461965        7.2448184706       -3.8725189069
 C        -5.9233093670        9.5535242888       -5.0251035332
 C       -12.1697134917        5.1816956410       -3.4253227023
 C       -12.5044510683        6.4822012175       -5.4553880297
 H       -13.2825665564        8.9582238815       -4.1591237260
 H       -11.6789762850        9.5043925816       -4.3423388810
 H       -12.6058416690        9.6489151101       -2.7140614268
 H       -10.0427106560        6.9443968855       -6.3943556305
 H        -9.7718296835        5.2767955433       -6.2303596990
 H        -7.6178831791        6.5876695702       -6.8778346532
 H        -7.3650855704        5.9732569101       -5.1576638747
 H        -9.0801609375       10.4556049863       -3.7887419175
 H        -7.6266033758       11.2783389625       -3.7057822889
 H        -9.2838804512       11.5426162438       -1.7064654232
 H        -7.5529920974       11.2362400117       -1.2060003658
 H       -10.3435033073        7.5510150440        2.3122419045
 H        -8.7583546961        8.0358484903        3.1052159232
 H        -9.0529395612        5.5103017554        3.2886109958
 H        -7.7831137227        5.9304731604        2.3261135773
 H        -9.3300932135        1.2530582798        1.4112663789
 H       -11.0161419958        1.2662136732        0.6787362810
 H       -11.7845549218       -0.1066428892        2.2956800158
 H       -11.1324504562        0.9968567361        3.4158623845
 H        -9.1696531228       -3.5338844755        2.5648905414
 H       -10.7247997137       -3.1310089259        2.1278628258
 H       -10.8794621202       -5.7320562877        3.6967253372
 H        -9.7297817738       -5.7064194192        2.5135114309
 H       -14.0743824750       -6.9517697678       -0.5853140561
 H       -13.5154458617       -8.5007616668        0.0065827298
 H       -12.9667509209       -7.8468916835       -1.6272802788
 H       -10.5372400554       -7.6577042352        2.8720988129
 H       -11.7893256430       -8.7910968221        2.2581175391
 H       -12.2496205238       -7.8085764019        3.6187833987
 H       -13.8267681399       -6.4203304474        3.1766731845
 H       -14.3448264850       -7.5884808778        1.9690366677
 H       -14.3004197116       -5.9625784560        1.6407963267
 H        -8.5828179975       -2.2054920345        5.9270245988
 H        -8.2333090729       -0.5207345758        5.3903266077
 H        -7.6726932190       -1.9207845670        4.3851124792
 H       -10.7367891073       -1.2960334498        6.4485919688
 H       -11.9692558133       -1.0215303896        5.2935817386
 H       -10.5804835957        0.2699775589        5.5389467692
 H       -10.1543134846        3.5977424879       -0.9176584502
 H        -8.5574851923        2.7465602367       -0.7927551199
 H        -8.6767974598        4.4016231115       -0.8043491097
 H        -6.8961746680        4.1245468702        1.3096697792
 H        -7.4762219374        2.4340292796        0.8992899592
 H        -7.6295458948        3.0557398536        2.4939501824
 H        -6.2152603307        9.4361967294        1.5446338632
 H        -6.4086838090       10.6265325986        0.2910887483
 H        -6.3392990889        8.9573440140       -0.1316822060
 H        -8.8321808459       11.6071006403        1.5416292482
 H        -8.9153166687       10.4480052287        2.7088430261
 H       -10.2131477009       10.6858134981        1.4873090521
 H        -5.1959919478        7.5789433435       -3.1065897960
 H        -5.3075074766        7.0660447720       -4.7992836108
 H        -6.4017136828        6.3856321555       -3.4951605373
 H        -5.2565765627        8.9901002795       -5.6336789885
 H        -5.5945621858       10.1283685966       -4.2103534102
 H        -6.5849322277       10.2722891773       -5.4895189211
 H       -11.9756944109        4.2870887008       -4.0463109509
 H       -13.1890179249        5.3062203930       -3.0294887106
 H       -11.6186907030        5.0696472917       -2.4873440926
 H       -12.8033840191        5.4438165171       -5.7354089321
 H       -12.0252857363        6.8176123883       -6.3947770043
 H       -13.3924615648        7.0849335080       -5.2538930489
 Na      -10.1614166306        6.7262068848       -1.2628547974
