117

 C       -12.4523863104        8.7978147793       -4.3178728335
 C       -12.4217084825        7.4816207033       -3.5601170615
 O       -12.5275509821        7.4790596145       -2.3297483601
 C       -11.9069135587        6.2042747384       -4.3476756590
 C       -10.2948406421        6.2300417588       -4.3595050307
 O        -9.6049063285        6.4981555322       -3.3793851834
 C        -9.6209724026        5.9620745241       -5.7213299472
 C        -8.0775138234        6.1476899583       -5.6349086379
 C        -7.7062744356        7.7370933269       -5.6487574617
 O        -8.3949807258        8.5157239382       -6.2589591381
 C        -6.4050416887        8.1335109918       -4.9800911683
 C        -6.7792579969        8.8204600927       -3.4516822407
 O        -6.1293749449        8.4831954043       -2.5347163374
 C        -7.8446906528        9.8063914319       -3.4915754725
 C        -8.0077432499       10.5830782628       -2.1868722264
 C        -8.5046987925        9.5294352883       -1.2288842159
 O        -9.5255778818        8.9829039387       -1.4824382562
 C        -8.0559474005        9.5516280313        0.2729020792
 C        -8.4217192529        7.9747445420        0.7822284663
 O        -8.2313530552        7.1121450116        0.0543445509
 C        -8.8407110553        7.6465166671        2.3447120535
 C        -8.5999222551        6.1255820482        2.6080994875
 C        -9.3174768855        5.2477536630        1.5112982696
 O       -10.2419516296        5.8680703885        0.9462448517
 C        -9.0190830732        3.7822758142        1.3175538156
 C        -9.7961962517        2.8088662881        2.3241210866
 O       -10.2463646466        3.2399251342        3.3711659849
 C        -9.8278680293        1.4533319029        1.9631026270
 C       -10.8025933137        0.5717764529        2.9657454763
 C        -9.9892817674       -0.5065289873        3.6864062457
 O        -8.9731660924       -0.8703971302        3.1883362712
 C       -10.5698198562       -1.0907273570        4.9359304264
 C       -11.0486308388       -2.7821261303        4.6000675114
 O       -11.5454685734       -3.3140045755        5.5459680366
 C       -10.5292121443       -3.5549712978        3.3316270836
 C       -11.1141790699       -4.9259881917        3.3254154236
 C       -12.2030594500       -5.1341896997        2.2259014914
 O       -12.6237581033       -4.2029493317        1.5976447801
 C       -12.6804293198       -6.6380115597        1.8128437522
 C       -12.2132709881       -6.6740582162        0.1832594949
 O       -10.9550282207       -6.7262275166        0.0608614089
 C       -13.2628268848       -6.6416302855       -0.9347835783
 C       -11.9147417728       -7.7692127970        2.5495391618
 C       -14.2236511014       -6.8614308440        2.3048647867
 C        -9.5232043162       -1.0689179733        6.2023294376
 C       -11.8450978640       -0.4387072276        5.6014500178
 C        -9.3849009261        3.2163245849       -0.0566435530
 C        -7.4678355570        3.4989632028        1.7270711545
 C        -6.5761225579        9.7965847351        0.6057238018
 C        -9.0014262941       10.5238079500        1.1974833415
 C        -5.4085163212        6.9049075347       -4.8152585614
 C        -5.7692810390        9.3192474126       -5.5762721363
 C       -12.3858301149        5.0461057605       -3.4685905544
 C       -12.5756831451        6.0044015906       -5.7994217695
 H       -13.1901095426        8.8934100492       -5.2031024652
 H       -11.5269630272        9.1209620555       -4.6756374146
 H       -12.6411258751        9.4598733449       -3.5115686948
 H        -9.9532780249        6.6987163266       -6.3948989838
 H        -9.9965430455        5.0069453789       -6.2104713305
 H        -7.6439669558        5.6308482825       -6.4723591988
 H        -7.6586215147        5.7179876653       -4.6717450650
 H        -8.7948228261        9.2543199742       -3.7130128080
 H        -7.6296361756       10.4806929272       -4.3033868295
 H        -8.6743699543       11.4141113593       -2.3018720506
 H        -7.0103682886       10.8132684064       -1.8283217156
 H        -9.9267023078        7.7551016671        2.6039916139
 H        -8.1686719140        8.2225000674        2.9285735890
 H        -9.0925146052        5.7998741586        3.5667688658
 H        -7.4782787650        6.0916710284        2.7496012993
 H        -8.8787935658        0.9199937997        2.1726155038
 H       -10.1084132316        1.1570394728        0.8910678326
 H       -11.4583167715        0.0114417616        2.2388836168
 H       -11.4040832671        1.2873005051        3.5848017170
 H        -9.5217557445       -3.8002383428        3.5434091322
 H       -10.4535226504       -2.9159280254        2.4816334792
 H       -11.5817667368       -5.3308752789        4.2219771778
 H       -10.3313723973       -5.6535948494        2.9878038143
 H       -13.0606444071       -6.3746205208       -1.9389393005
 H       -14.2686367791       -6.3006420485       -0.6602589792
 H       -13.4480747336       -7.7360681357       -1.0369716116
 H       -10.8730174634       -7.4247332678        2.6834365787
 H       -12.0888105539       -8.7555916494        2.0321017558
 H       -12.3597611342       -7.7017780929        3.5348375399
 H       -14.2888996746       -6.7192190958        3.3981372498
 H       -14.6003646257       -7.7991959705        2.2461328117
 H       -14.9343573661       -6.1396873534        1.8028404127
 H        -9.8275541153       -1.5995321735        7.0545700305
 H        -9.5063697896       -0.0420728785        6.4424115890
 H        -8.5857418083       -1.4394089557        5.7203262988
 H       -12.1200590523       -1.0642340105        6.3977960318
 H       -12.4613871490       -0.5034545371        4.7587046310
 H       -11.9137850593        0.6515622444        5.8667739479
 H       -10.2835652526        2.6348934562       -0.3072406999
 H        -8.5638352255        2.3829815746       -0.3596353204
 H        -9.3962939982        3.9906823123       -0.8264923259
 H        -6.6918609738        4.0234407424        1.0369543415
 H        -7.1856513208        2.4423157617        1.5121662141
 H        -7.3015668984        3.7056039079        2.7563595236
 H        -6.4055997149        9.3602526170        1.5622280163
 H        -6.1666320793       10.7939315624        0.6999233917
 H        -5.8081260464        9.3508201681       -0.1032135324
 H        -9.0717659612       11.4885156241        0.8186902334
 H        -8.6953078673       10.7759514074        2.2098972872
 H       -10.0328274055       10.2316736678        1.4552997207
 H        -4.5776857397        7.3520961099       -4.2804685097
 H        -5.0105971237        6.4954270028       -5.8049315453
 H        -5.9063446308        6.1512306980       -4.1390864934
 H        -5.1040120057        8.9465741163       -6.3588466648
 H        -5.0478721317        9.6860779585       -4.8442498178
 H        -6.6517557062        9.8877716794       -5.9785711667
 H       -12.1215514836        4.1155165699       -3.9192733719
 H       -13.4630361970        5.0180157847       -3.4716173614
 H       -11.9988358138        5.1322322171       -2.4792887172
 H       -11.8195764100        6.2754161455       -6.4937386783
 H       -13.4455829183        6.6246399096       -5.8146883042
 H       -12.8460028723        4.9904040379       -5.9062584281
 Na      -10.7129723660        6.8293462545       -1.1025063173
