117

 C       -12.5941075661        8.7010999529       -4.5180551966
 C       -12.3605180849        7.5180887857       -3.6650663736
 O       -12.6412643426        7.3845928657       -2.4648756565
 C       -11.9170159776        6.1785754834       -4.3063506862
 C       -10.2708411521        6.2141379529       -4.3078736282
 O        -9.6246333210        6.3140814522       -3.2654551561
 C        -9.5807457557        5.9882761078       -5.6032553365
 C        -8.0776726098        6.2215720658       -5.6065098193
 C        -7.6626273115        7.6276905219       -5.6800303252
 O        -8.2738873394        8.5282994349       -6.1304904933
 C        -6.2690582054        8.1374071335       -5.0138242125
 C        -6.5929144638        8.6272606684       -3.6192965419
 O        -6.0594662722        8.3307752367       -2.6081008345
 C        -7.7058457741        9.8336214039       -3.6809064318
 C        -7.7362029779       10.4849344279       -2.1398755854
 C        -8.6015846506        9.6389423797       -1.1734774462
 O        -9.5328910564        8.9445368950       -1.5724057493
 C        -8.1024656719        9.4096495200        0.4180551208
 C        -8.3390601112        8.0138599844        0.8775246519
 O        -8.2981473884        7.1654661140        0.0207720596
 C        -8.8720349724        7.6594955605        2.2248409705
 C        -8.5419771450        6.2100133946        2.6138138964
 C        -9.2706981776        5.3558422452        1.5886345722
 O       -10.3198214099        5.7718567637        0.9671149343
 C        -8.8664006440        3.7979706866        1.3309914075
 C        -9.8091842576        2.7913091506        2.4275817492
 O       -10.1175924557        3.2001962286        3.5177841673
 C        -9.8181499065        1.3253700182        1.9912578013
 C       -10.8247254465        0.6473435596        2.9718717914
 C       -10.0762261941       -0.5435218416        3.8506396822
 O        -8.9418445992       -0.9123679197        3.3921548710
 C       -10.6761778905       -1.1569304581        5.0369355326
 C       -10.9692258089       -2.6803185628        4.7995655364
 O       -11.5900428425       -3.2869753615        5.6714280129
 C       -10.6101479085       -3.4568055951        3.5055285866
 C       -11.1019464125       -4.9481447513        3.2868974333
 C       -12.3393546961       -5.0839087474        2.1773894965
 O       -12.7252297721       -4.1389723202        1.5912480773
 C       -12.6907469814       -6.5214495818        1.8843164448
 C       -12.2873488511       -6.6197980961        0.4042035118
 O       -11.0944263960       -6.6594293641        0.0547223796
 C       -13.1993057334       -6.5041341842       -0.8028239659
 C       -11.8756101163       -7.6801972896        2.6165367178
 C       -14.1580499850       -6.7814965045        2.0810296499
 C        -9.7146371561       -1.2378713318        6.2518642101
 C       -12.0369506482       -0.5054250348        5.5487560724
 C        -9.2733740673        3.4161381757       -0.1274413165
 C        -7.4499227717        3.4756856358        1.6360611904
 C        -6.6306244929        9.8650280936        0.6213518627
 C        -8.8822859889       10.5030637131        1.1551758009
 C        -5.3105443306        6.7981269836       -5.0365078920
 C        -5.7691189982        9.3778054424       -5.9208583694
 C       -12.4219446290        4.9131513296       -3.4449408923
 C       -12.6889624014        6.1227422796       -5.7224996953
 H       -13.4794777284        8.5135473701       -5.2326494747
 H       -11.7640005576        8.9432420498       -5.1469912236
 H       -12.7470998014        9.5267130848       -3.8883530136
 H       -10.1848087271        6.3732153577       -6.5458381572
 H        -9.6653164120        4.9278615642       -5.7136444628
 H        -7.7317223698        5.6655694721       -6.4967969017
 H        -7.6271442108        5.7417692438       -4.7599993567
 H        -8.7182643105        9.4846481565       -4.0185605561
 H        -7.3324245656       10.5801699712       -4.3120494849
 H        -8.1455802603       11.4756719245       -2.1814787363
 H        -6.7147517087       10.4949694909       -1.6954016093
 H        -9.9217444686        7.6809498321        2.0827382300
 H        -8.5723894169        8.3511112525        2.9705576775
 H        -8.7822436948        5.8416165104        3.6055499138
 H        -7.4483147236        6.1881730338        2.4319655799
 H        -8.8942022508        0.7681216479        2.0961893014
 H       -10.1420256047        1.2198403398        1.0083248871
 H       -11.6902025575        0.1518278016        2.4119632327
 H       -11.1752631085        1.4834187023        3.5679746110
 H        -9.5665770389       -3.4901791723        3.2919280210
 H       -11.0364876649       -2.7364371500        2.6963477598
 H       -11.6942333453       -5.3707927064        4.0468485079
 H       -10.2853076440       -5.6164331725        2.9983741422
 H       -12.5490597371       -6.3282146991       -1.6291338912
 H       -13.8779690842       -5.7110051056       -0.7760715627
 H       -13.7691381188       -7.2964599767       -1.1062368556
 H       -10.9059639793       -7.7506373084        2.1657730749
 H       -12.5501966437       -8.5451875617        2.5331903548
 H       -11.7577296424       -7.2854132868        3.7458973744
 H       -14.2017359815       -6.7565186536        3.1724983089
 H       -14.3467804791       -7.9172461950        2.0690345673
 H       -14.9931025095       -6.2765003995        1.6417297178
 H       -10.1666643835       -1.7989424472        7.0531119965
 H        -9.5522842173       -0.1650278862        6.6245245622
 H        -8.8821612725       -1.7019662259        5.8368097309
 H       -12.5369277998       -1.2312597592        6.2836245856
 H       -12.5928340264       -0.2311374386        4.6709135530
 H       -11.8410978157        0.5099689533        6.0205876486
 H       -10.3703118312        3.2366799970       -0.1064323903
 H        -8.9871625257        2.5742935820       -0.7174761484
 H        -9.3584848452        4.4006223076       -0.7513586494
 H        -6.8248880065        3.5286093973        0.7634827777
 H        -7.3553860994        2.4043951046        1.8121803214
 H        -6.9589409102        4.0268597543        2.4975194707
 H        -6.0847648091        9.3205820814        1.4143645451
 H        -6.4970289320       10.9085590217        0.9287220653
 H        -6.0253512908        9.7926257163       -0.2429536308
 H        -8.8300725497       11.4472201541        0.6636971861
 H        -8.6698385544       10.6926458742        2.1607449815
 H        -9.9117809535       10.3197774712        1.3322296345
 H        -4.3363487280        7.0491227859       -4.6582164806
 H        -5.2249603942        6.4104987851       -6.0757723669
 H        -5.7714079915        6.0788775834       -4.3039381584
 H        -5.3377925736        8.8858390780       -6.7639595065
 H        -4.9229240742        9.7199800448       -5.4417340671
 H        -6.6709842117        9.9859252038       -6.2161286526
 H       -12.1185496316        4.0150882919       -3.9880065068
 H       -13.4961646333        4.8718640859       -3.5044172133
 H       -11.9974897995        4.8535850203       -2.4505674035
 H       -12.0536098687        6.4479164476       -6.5269014533
 H       -13.6022999132        6.7134744469       -5.6125569576
 H       -12.9709572196        5.0958099881       -5.7972865338
 Na      -10.7253119623        6.8920638291       -1.2702262510
