117

 C       -13.0291958283        8.3825914779       -4.5514346564
 C       -12.2396099403        7.3578880326       -3.7755682514
 O       -11.9833269645        7.4867506658       -2.5971805470
 C       -11.9572119607        5.8767019019       -4.4720350811
 C       -10.3760376713        5.8285947956       -4.2668409961
 O        -9.9204264271        6.0553109404       -3.1491353290
 C        -9.4983899510        5.9115964999       -5.5361155924
 C        -8.0481682674        6.1524326531       -5.3149299759
 C        -7.5626203240        7.5544330997       -5.7097516741
 O        -8.4160331888        8.3611126648       -6.0071102692
 C        -6.1333099700        7.9535422024       -5.4113328893
 C        -6.2321967578        8.6248990060       -3.9329742140
 O        -5.8380349744        7.9602501647       -2.9697254029
 C        -7.0041633348        9.9388529567       -3.8044656735
 C        -6.9680712710       10.2464899407       -2.2482129112
 C        -8.1607231626        9.5778383134       -1.3663344833
 O        -9.2078277481        9.1715060880       -1.9566689545
 C        -8.0555440612        9.3299838058        0.2638518428
 C        -8.4398330917        7.9499823953        0.7197511944
 O        -8.2816745635        6.9948072646       -0.1141489319
 C        -8.7655132980        7.6784507726        2.1280214263
 C        -8.7708371792        6.1233783237        2.4209086047
 C        -9.5535162020        5.2209245649        1.5737569313
 O       -10.4665626194        5.6673199205        0.8007610970
 C        -8.9259259051        3.6590022689        1.3537700472
 C        -9.4998217857        2.8519337377        2.4678673067
 O        -9.5656628561        3.4124233532        3.5549640164
 C        -9.8402837063        1.3313129279        2.3830086972
 C       -10.8099982183        0.8707646110        3.5298213863
 C       -10.2428555469       -0.3052769691        4.2247418959
 O        -9.0802308943       -0.7042460376        3.9917194748
 C       -11.0073197274       -1.0044745897        5.3843263734
 C       -11.2811639200       -2.6002379022        4.9063905204
 O       -11.6453980347       -3.3417659255        5.7760827694
 C       -10.9665386581       -3.0377039521        3.4561872683
 C       -11.2108502795       -4.5974335523        3.1951693289
 C       -12.4627766102       -4.9451415009        2.3280871099
 O       -13.1921001141       -4.0520207954        2.0225559268
 C       -12.8481004240       -6.3808716191        1.7890380874
 C       -12.2640906793       -6.4315810040        0.3780513396
 O       -11.1464345770       -6.8178264700        0.1845259913
 C       -13.0103001755       -5.7014986120       -0.7911784652
 C       -12.0079703989       -7.5261548031        2.6274551423
 C       -14.3647707410       -6.5549927122        2.0788737445
 C       -10.2014217117       -1.0455630341        6.8218457511
 C       -12.4402673385       -0.5049703898        5.5804068293
 C        -9.3355356566        3.0558505109       -0.1091303952
 C        -7.4041777865        3.7218930758        1.4849270651
 C        -6.7185885472        9.7372425674        0.8723203082
 C        -9.0249791542       10.3635907679        0.6764344939
 C        -5.1789713184        6.7666476158       -5.6330281195
 C        -5.9707461756        9.1147845642       -6.4079277966
 C       -12.5977780642        4.9413949662       -3.4146598508
 C       -12.5798281732        5.6739902097       -5.8889164365
 H       -13.9095402205        7.9493644127       -4.7035805287
 H       -12.6184541667        8.6297358851       -5.5484715060
 H       -13.2063272299        9.2978673630       -3.9602125908
 H       -10.0056609987        6.8341188440       -6.0947493741
 H        -9.7117364153        5.0792372588       -6.1553201595
 H        -7.4330004838        5.4016021789       -5.8644775754
 H        -7.7885017970        5.9324072911       -4.2845953849
 H        -8.0344863928        9.8744140705       -4.2267083054
 H        -6.3922020489       10.6703798934       -4.2518718010
 H        -7.2751041051       11.2977938075       -2.1320189082
 H        -5.9475468627       10.1592083294       -1.8270221559
 H        -9.7493659931        7.9916543723        2.3434798183
 H        -8.1920040404        8.2094993950        2.8781749931
 H        -9.2181234579        6.1484876563        3.4497724569
 H        -7.7809935096        5.6571941312        2.3295808915
 H        -8.8704436533        0.7171486407        2.3832760325
 H       -10.3123497347        0.9107332575        1.4899762234
 H       -11.9325999961        0.7336392503        3.3358316099
 H       -10.7220944050        1.6668190811        4.3104328368
 H        -9.9357568025       -2.7990355856        3.4761232844
 H       -11.4339289336       -2.3805043702        2.7329345707
 H       -11.5446379795       -4.8328212004        4.2087429023
 H       -10.2846130159       -5.0904353520        2.8694929757
 H       -12.3207767935       -5.6483917414       -1.6749398681
 H       -13.2841306773       -4.6525629336       -0.5575330612
 H       -13.9123658232       -6.0885574462       -1.2352061084
 H       -11.0291771178       -7.0455296191        2.5911206790
 H       -12.0478540013       -8.4428876464        2.0189834826
 H       -12.4323710682       -7.5793969170        3.6813873085
 H       -14.4809443726       -6.2998562318        3.1100811820
 H       -14.7007492640       -7.6427300002        1.8162513721
 H       -15.0426326692       -5.9976566942        1.4931664336
 H       -10.8325443383       -1.7584694137        7.3369229395
 H       -10.2792778964       -0.0256262172        7.3079338679
 H        -9.2186460296       -1.3422286210        6.8134630302
 H       -12.7403311021       -1.1505237786        6.4434000952
 H       -13.2332584279       -0.8811169231        4.9298251603
 H       -12.5509107217        0.5450849092        5.7249705413
 H       -10.4837937348        3.1004454081       -0.3328526766
 H        -9.1357316007        2.0314426151       -0.3279821329
 H        -8.9906602769        3.7140859858       -1.0297067333
 H        -6.9105947766        4.6441583077        1.2874691613
 H        -7.0390104327        2.9778001120        0.7518668276
 H        -6.9388673216        3.4394298596        2.5230769734
 H        -6.8171038832       10.1662700051        1.9195024474
 H        -6.4057913298       10.6585535834        0.3420774747
 H        -5.8991931150        9.0729438180        0.9183632629
 H        -8.6137058789       11.3229179407        0.2864425878
 H        -9.2863919019       10.5238620046        1.7062719599
 H       -10.0012568979       10.4311909749        0.2534230415
 H        -4.2010123483        6.9235860898       -5.1210602638
 H        -5.1622346395        6.4236887348       -6.6828677115
 H        -5.5863628355        5.9204931339       -5.0189717551
 H        -5.9835590174        8.5737723336       -7.3898656156
 H        -5.0120138088        9.6024671838       -6.2376208221
 H        -6.9268355830        9.6358640533       -6.3638015152
 H       -12.2777545135        3.9221696924       -3.4976142191
 H       -13.6483210734        5.0777768234       -3.4565817341
 H       -12.0960218159        5.2060224161       -2.5204874325
 H       -12.6158424626        6.6486214837       -6.3021998899
 H       -13.5769397823        5.3203181496       -5.7822144884
 H       -11.9650632397        5.0110774496       -6.4411083061
 Na      -10.3621247938        7.0191728333       -1.0462232081
