117

 C       -13.1384943284        8.1532108919       -4.5498251255
 C       -12.2759997955        7.2847082553       -3.7075962559
 O       -11.7557236247        7.7241204004       -2.7251480331
 C       -11.9547517299        5.8933082318       -4.3403895481
 C       -10.3981381801        5.8720760587       -4.2308361913
 O        -9.8608837959        5.9088488697       -3.1629669717
 C        -9.5972341230        5.7001544786       -5.5418912634
 C        -8.0649793446        5.9867258708       -5.2070445888
 C        -7.7171379814        7.5584626564       -5.5585888988
 O        -8.5888352686        8.3071249487       -6.0946692988
 C        -6.2209715805        7.9858973629       -5.4727512427
 C        -6.1658776079        8.6161601923       -3.9251945650
 O        -5.7183604660        7.8807456874       -2.9595718087
 C        -6.8642299402        9.9036991856       -3.6610441714
 C        -6.8128400382       10.1415152426       -2.1052731922
 C        -7.9823041417        9.4150941709       -1.4818928104
 O        -8.9660648601        8.9856908650       -1.9953546115
 C        -7.9405642085        9.4652328416        0.0660451160
 C        -8.3368190460        7.8339913895        0.5979894894
 O        -8.2010611851        6.8882745499       -0.1666882671
 C        -8.8850568321        7.6961245610        2.1024829263
 C        -8.8490143881        6.0955586541        2.5109808381
 C        -9.4459319716        5.1170285983        1.3144140794
 O       -10.4804428398        5.4228648418        0.6263054151
 C        -8.9512009066        3.7451916850        1.2686735728
 C        -9.4958718792        2.9162167750        2.6459481400
 O        -9.5137131368        3.4628734395        3.6734267095
 C        -9.8852892047        1.4387303757        2.6242255375
 C       -10.7751911102        1.0414182192        3.7041013399
 C       -10.1381442273       -0.1391099238        4.4705022491
 O        -9.1279896201       -0.6368333101        4.0576149511
 C       -11.2059906007       -1.0210137254        5.4640800062
 C       -11.2656726687       -2.4669537954        4.9631755878
 O       -11.5939144568       -3.2945037419        5.7847731188
 C       -10.9495250024       -3.0463924419        3.4673006242
 C       -11.2543120853       -4.5457110851        3.2558754418
 C       -12.5238110641       -4.8270782334        2.4242916699
 O       -13.3675554755       -3.9415155107        2.0335578040
 C       -12.8313096151       -6.2712669035        1.9215239958
 C       -12.2471002133       -6.2651191253        0.4248242853
 O       -11.3034818627       -6.9315570019        0.2022398678
 C       -12.9385659790       -5.5208183854       -0.7054783728
 C       -12.0352089243       -7.4609432422        2.5786578658
 C       -14.3715891829       -6.6516087810        1.9144375332
 C       -10.3461121254       -0.9383097434        6.7555482485
 C       -12.6019148709       -0.4253525111        5.5955362708
 C        -9.4598942628        3.0953271491        0.0018741349
 C        -7.3923563098        3.6217650727        1.2998881905
 C        -6.6525405073        9.7768269895        0.8023229128
 C        -9.1856305409       10.3683062954        0.4877445103
 C        -5.2788699794        6.8920078950       -5.7494665514
 C        -5.8228364608        9.1709283054       -6.5077779411
 C       -12.6805819851        4.7730725511       -3.3519763596
 C       -12.4671649460        5.6962150849       -5.7710923128
 H       -14.0729476699        7.6712815154       -4.8388390642
 H       -12.6002258077        8.4423387788       -5.4364513708
 H       -13.4164873969        9.0346635026       -3.9730180606
 H        -9.9072250985        6.5612056414       -6.2303118446
 H        -9.9322505386        4.7647836437       -6.0486826674
 H        -7.4087099107        5.5058325040       -5.9579747163
 H        -7.6930182350        5.6150364810       -4.2759653562
 H        -7.8391484799        9.9094124777       -4.0426668473
 H        -6.1127721235       10.5760902813       -4.1541210086
 H        -6.8878455756       11.2055878345       -1.6956595726
 H        -5.8549471417        9.7805242009       -1.6818842126
 H        -9.8339018650        8.0918975522        2.2297361093
 H        -8.2958045463        8.3524101937        2.7888792786
 H        -9.6164335326        5.9188079280        3.2581217610
 H        -7.8459085050        5.7857470002        2.7035824056
 H        -9.0212925750        0.7679443601        2.6637439307
 H       -10.3503626486        1.0177549285        1.7919165616
 H       -11.7910059631        0.8198436346        3.4077528379
 H       -10.8545567280        1.8212911824        4.5262621376
 H        -9.8206193598       -2.9203336209        3.3191091687
 H       -11.4703532256       -2.4765267936        2.6911895447
 H       -11.0055267504       -5.1176902685        4.1340412149
 H       -10.6091405528       -4.6509464071        2.3862627362
 H       -12.4031813712       -5.2048312842       -1.5443585731
 H       -13.4613053382       -4.7037427737       -0.3140658547
 H       -13.7563951924       -6.1052505271       -1.0720861121
 H       -11.0690749304       -6.9399639670        2.9903212387
 H       -11.8211957515       -8.2380960166        1.7902592724
 H       -12.6970066847       -7.7547629915        3.3058489542
 H       -14.9810633918       -6.1938255362        2.6776522728
 H       -14.6689450794       -7.6221634203        1.5419521707
 H       -14.5759500705       -6.0953926985        0.9677047105
 H       -10.6006626329       -1.8829475304        7.2633705384
 H       -10.5868642742       -0.0776032086        7.2950362842
 H        -9.2419368617       -0.8777021582        6.5809734286
 H       -13.3105910573       -1.1166104818        6.0801510226
 H       -13.2138629455       -0.4301955629        4.6019478054
 H       -12.4468620612        0.5605751609        6.0118369071
 H       -10.5252947112        2.6944677534       -0.1240368288
 H        -8.8095601165        2.2319094883       -0.3998419811
 H        -9.4358553748        3.8101330809       -0.8026015333
 H        -6.8208871927        4.4939084472        0.9587362964
 H        -6.9740072882        2.6775304291        0.8387404311
 H        -7.1016391886        3.6453188589        2.3488348950
 H        -6.6981860217        9.8067206642        1.8692542683
 H        -6.4473073123       10.8286591474        0.5794010596
 H        -5.7748959136        9.1626913702        0.5426595308
 H        -9.1649447224       11.4204847464        0.2096759312
 H        -9.2875074063       10.3958609893        1.5290265888
 H       -10.1135671074       10.1357768533        0.0749841060
 H        -4.2565247132        7.2361808793       -5.3506998621
 H        -5.3160218085        6.7275701283       -6.8420250822
 H        -5.4317635271        5.9201297503       -5.2881676548
 H        -5.7475951406        8.6702438113       -7.4697863791
 H        -4.8161478514        9.6033266162       -6.2125318483
 H        -6.6652775880        9.7973393095       -6.4466887488
 H       -12.4244195188        3.8039190633       -3.6584329395
 H       -13.7009927394        5.0523089628       -3.3732910218
 H       -12.2030596538        4.8004058164       -2.3949291189
 H       -11.9414729032        6.4830061649       -6.3025660797
 H       -13.5027585568        5.8824265228       -5.8871685394
 H       -12.1328122503        4.7194551920       -6.0851325210
 Na      -10.3122623689        7.0677239161       -1.1855003187
