117

 C       -13.5146660845        8.0657632651       -4.4952984730
 C       -12.3139415533        7.4242329625       -3.8421718816
 O       -11.8202891410        8.0496514532       -2.8999385938
 C       -11.9055557068        5.8750104859       -4.2499929767
 C       -10.2334778152        5.6543627543       -4.1164908093
 O        -9.7391515748        5.5009130416       -2.9985905386
 C        -9.4127666324        5.4788088741       -5.4209511219
 C        -8.0042133164        5.9013504885       -5.2979912343
 C        -7.8284309753        7.5131759065       -5.7039705254
 O        -8.7310816339        8.2040898483       -6.0499859405
 C        -6.3378774756        8.0048183118       -5.6232809262
 C        -6.1527680594        8.3522629836       -3.9975426267
 O        -5.4880651926        7.7044257727       -3.2869138383
 C        -6.5027311106        9.8599526402       -3.5843021621
 C        -6.5799155017       10.0061583840       -2.1439380919
 C        -7.7345818246        9.2403755241       -1.4509179395
 O        -8.4408811286        8.4803061309       -2.2139285946
 C        -8.0030194594        9.2832537512        0.0358890827
 C        -8.2929778122        7.7851243291        0.4524290712
 O        -7.7690095048        6.8833629594       -0.1958669047
 C        -9.0938636327        7.5471991236        1.9743792224
 C        -9.1193552598        6.1580743128        2.3550201028
 C        -9.5656669321        5.2352207479        1.2045051178
 O       -10.3040002257        5.5161544969        0.2984117905
 C        -8.9740760719        3.7865291379        1.2692922491
 C        -9.4146750292        3.1212101994        2.6945443613
 O        -9.2918968430        3.9045982304        3.6469656640
 C        -9.9132394587        1.6473222191        2.6827462085
 C       -10.7211660849        1.1911000221        4.0454758286
 C       -10.3395455577       -0.2200687458        4.5377150289
 O        -9.1340192698       -0.4377059329        4.2666857520
 C       -11.2981317195       -1.0190262491        5.4892519503
 C       -11.4588791409       -2.5162110047        4.9913225223
 O       -11.5274660801       -3.4187706136        5.8065261300
 C       -11.2209399321       -2.8574546946        3.5870182413
 C       -11.3252006899       -4.4021678780        3.2200832768
 C       -12.6406955483       -4.6754007912        2.4531853622
 O       -13.4685955684       -3.8573045747        2.3092647698
 C       -12.8301861901       -6.0718779286        1.8380235080
 C       -12.2400700845       -6.2184494675        0.4365097117
 O       -11.3459795637       -6.9600165072        0.0212314863
 C       -12.8644211243       -5.1056847210       -0.4770797123
 C       -12.2031560511       -7.1294932191        2.9690961302
 C       -14.3379073855       -6.5217898704        1.6777250303
 C       -10.6423564366       -0.9709039503        6.9677652249
 C       -12.7786428391       -0.4248143684        5.4675634715
 C        -9.5871152728        2.8198468800        0.1267762604
 C        -7.4563461552        3.5738867878        1.2231920976
 C        -6.7657986629        9.8608963479        0.8889030447
 C        -9.1662190220       10.0890923131        0.4122342418
 C        -5.2546751176        6.8730767867       -5.7529490507
 C        -6.1325989746        9.2988206808       -6.4050502611
 C       -12.4995971718        4.8400184175       -3.2509517455
 C       -12.5110104316        5.5732029347       -5.6738621694
 H       -14.3001622162        7.4077092646       -4.4376874819
 H       -13.3806166589        8.3519913894       -5.5833606749
 H       -13.8764318306        8.9383089050       -3.8866632052
 H        -9.7986333350        6.0354090772       -6.2750787121
 H        -9.5695574019        4.4380627042       -5.6483012729
 H        -7.3834454940        5.2176131271       -5.8677457748
 H        -7.5602029309        5.8358672187       -4.2602640529
 H        -7.5247063963       10.2620377303       -3.9004061773
 H        -5.7150542783       10.5141162325       -3.8974208379
 H        -6.7041984672       11.0597351033       -2.0263490298
 H        -5.6720123537        9.7403826754       -1.5657440443
 H       -10.1976659523        7.8543055117        1.7107299467
 H        -8.8673053194        8.3019721183        2.7396149565
 H        -9.9140666304        5.8866419787        3.1195863358
 H        -8.0343752115        5.8146086199        2.5594131533
 H        -9.0811123830        0.9477328847        2.5819988308
 H       -10.4916769782        1.2720391064        1.8003578021
 H       -11.8081534654        1.1041522910        3.8174045850
 H       -10.6615705106        1.8326609422        4.8890777095
 H       -10.1969641109       -2.5568473804        3.4587693547
 H       -11.8486673709       -2.1857087060        2.9361114586
 H       -11.5899692064       -4.7246702488        4.2518683989
 H       -10.2964020423       -4.6771376034        2.9144549042
 H       -12.0033190765       -4.5931344814       -0.9809693010
 H       -13.4449805397       -4.2910901177       -0.0134623918
 H       -13.5035277094       -5.4416676213       -1.2775763570
 H       -11.2557956213       -6.7574269994        3.1368454796
 H       -12.1562477113       -8.0455782282        2.4878332520
 H       -12.9662954929       -7.1477997020        3.8149479851
 H       -14.5993303144       -6.5193704823        2.7281434264
 H       -14.2836943038       -7.5253698710        1.1920181246
 H       -15.0821481081       -5.9986883147        1.0940447039
 H       -11.0913497519       -1.7221756320        7.6202596330
 H       -10.7128955672        0.1366264702        7.2534097798
 H        -9.5944117144       -1.0978840839        6.9042649833
 H       -13.4646047738       -1.1303559205        5.9775625005
 H       -13.2776400664       -0.4937843434        4.5579799707
 H       -12.7242478544        0.5869613375        5.9827854413
 H       -10.6270360269        2.8685473226        0.2727104033
 H        -9.3185230785        1.8547396802        0.0930890846
 H        -9.3715796389        3.0679750911       -0.9517866020
 H        -7.2043635446        3.6196899336        0.2083383035
 H        -7.1759139624        2.6350161382        1.5935723378
 H        -6.8090957003        4.3791001788        1.6051265047
 H        -7.0040652284        9.6739490570        1.9976407046
 H        -6.6524846201       10.9878807550        0.7778892186
 H        -5.8112364479        9.3602105037        0.7848796881
 H        -9.1917349974       11.1185796681        0.0153455195
 H        -9.2250905871       10.3445974641        1.5042999850
 H       -10.1347227858        9.7525386607       -0.0178929893
 H        -4.2537638347        7.1919900431       -5.8341931566
 H        -5.5014128482        6.1888251570       -6.5371188386
 H        -5.2982900537        6.2377895849       -4.8548152722
 H        -6.1062722269        8.9269335500       -7.4338686520
 H        -5.1662999935        9.5821427929       -6.0993357175
 H        -6.8521296343       10.0863777402       -6.0833740026
 H       -12.1308171236        3.8419208217       -3.5740089639
 H       -13.5783029505        5.0768456377       -3.1517109640
 H       -12.0207266265        4.9357131777       -2.2572870816
 H       -12.4056244772        6.4405597054       -6.3616361687
 H       -13.6355899180        5.4640551254       -5.5459188341
 H       -12.0526985349        4.6291988819       -6.0729092458
 Na      -10.1231863493        7.0317987578       -1.4247296547
