117

 C       -13.5836707091        7.8146623020       -4.3337227961
 C       -12.2014072127        7.3729012836       -3.8811560296
 O       -11.6971466788        7.9388603823       -2.9025014198
 C       -11.8519096956        5.8479523678       -4.1973244875
 C       -10.3164177167        5.6405860314       -4.2051170443
 O        -9.7433082408        5.3514940766       -3.1718849860
 C        -9.4483749618        5.4568553679       -5.5178826699
 C        -7.9681828548        5.7808178007       -5.2253227785
 C        -7.7971230617        7.2698105530       -5.5266764319
 O        -8.7185227366        7.9807117199       -5.9042631996
 C        -6.2772224818        7.9862611311       -5.5770924954
 C        -5.9272085741        8.4312943731       -4.1227220481
 O        -5.5396460617        7.6144604856       -3.2681439501
 C        -6.3389002264        9.8310755565       -3.6413849475
 C        -6.3677154657       10.0068654923       -1.9794358414
 C        -7.4917334893        9.1009270381       -1.5546594625
 O        -8.0512415068        8.3002576161       -2.1620622574
 C        -7.8853693476        9.1490919530       -0.0154232449
 C        -8.1556719610        7.7144574612        0.5976528772
 O        -7.4262172124        6.8528131896        0.2417422435
 C        -9.3015083461        7.5442927664        1.6349473748
 C        -9.1886606073        6.1674377613        2.3096132191
 C        -9.6126195792        5.1552914258        1.0267253702
 O       -10.1903327399        5.4190625384       -0.0571432685
 C        -9.2314520174        3.6767986066        1.2137384412
 C        -9.4971312112        3.1401181479        2.7827958600
 O        -9.2529688183        3.8533626177        3.7291949192
 C        -9.9410205972        1.6553104015        3.0125067074
 C       -10.6317025243        1.3468714583        4.3114315983
 C       -10.4480509053       -0.0747042013        4.7475890639
 O        -9.3898025126       -0.5188716849        4.4577310212
 C       -11.3525925638       -0.9440566936        5.5782379268
 C       -11.3248750145       -2.3888719480        5.0758005402
 O       -11.4637370385       -3.2707680910        5.8790760340
 C       -11.3389517810       -2.6749895985        3.5131492752
 C       -11.4948223627       -4.1868192285        3.2100493252
 C       -12.7654557003       -4.4886688583        2.5168285745
 O       -13.7735155994       -3.7193353205        2.4197191047
 C       -12.9163751451       -6.0593234177        2.0243603814
 C       -12.2830481430       -5.9114036859        0.4885799127
 O       -11.4898050090       -6.8446446556        0.2278521931
 C       -12.4406951032       -4.8624652198       -0.4732315688
 C       -12.1458525914       -7.1014036158        2.7502232774
 C       -14.4074567882       -6.2934994497        1.8376039331
 C       -10.9809191956       -0.9271034603        7.1446193447
 C       -12.8776201884       -0.5502249629        5.3972304785
 C        -9.7662492508        2.8652064967        0.0136023955
 C        -7.5751704394        3.6754317245        1.1658170959
 C        -6.8693073812        9.8104521902        0.9139582216
 C        -9.1630982459       10.0150541432       -0.0642819487
 C        -5.2770761266        6.9187296904       -6.3019052263
 C        -6.4093569241        9.1827366124       -6.7079310033
 C       -12.5266984045        5.1745148503       -2.9115177838
 C       -12.3818107292        5.3382721606       -5.6591164828
 H       -14.4250402533        7.0675039826       -3.9177074429
 H       -13.6744843969        7.8623784905       -5.3572551222
 H       -13.8998852961        8.7056368579       -3.9159498450
 H        -9.9002107226        5.9938664614       -6.3741758987
 H        -9.5576833959        4.3422690349       -5.7553421611
 H        -7.2254849779        5.1696432468       -5.7879054301
 H        -7.7136623275        5.5692170121       -4.2010380566
 H        -7.3077293238        9.9186978317       -4.0412491421
 H        -5.6569310688       10.5982061570       -4.1062617427
 H        -6.4224733196       11.0436581023       -1.5374158630
 H        -5.5013382670        9.6231798060       -1.4672896598
 H       -10.2422313452        7.8423069675        1.3646437372
 H        -9.0063394558        8.3726918583        2.2883727067
 H        -9.9124292767        5.9432871534        3.0571993000
 H        -8.1697783319        5.8997173353        2.4452899070
 H        -9.2571509027        0.7494547520        2.8201781125
 H       -10.6890639008        1.4966825452        2.1932714105
 H       -11.5656306401        1.8603717007        4.4620418114
 H        -9.9364106801        1.8874349424        5.0565259380
 H       -10.6791010040       -2.1059631042        2.8311979734
 H       -12.3045488893       -2.3733725769        3.2346912770
 H       -11.4242008938       -4.7916912582        4.0963368291
 H       -10.7251581314       -4.3281425031        2.4867697923
 H       -11.4727735166       -4.4060525290       -0.7391654157
 H       -13.1203215712       -4.0619989276       -0.1427359636
 H       -12.9021545010       -5.2893633273       -1.4268763883
 H       -11.3056698112       -7.4105253509        2.0918476360
 H       -12.9255593627       -7.8985449399        2.6966607970
 H       -12.0261239579       -6.7291439956        3.7401555581
 H       -14.9692853030       -6.6850497616        2.6885905513
 H       -14.5018901787       -6.7668319563        0.9240843198
 H       -14.8963692454       -5.2807670944        1.6821977206
 H       -11.7835466724       -1.3170821329        7.7578941738
 H       -10.6256027881        0.0015058422        7.3070478013
 H       -10.0428552799       -1.5556669132        7.1786426143
 H       -13.6907424664       -0.8233998499        6.0402630803
 H       -13.1208154619       -0.9624838347        4.3974955458
 H       -12.9197794026        0.5358005375        5.5271397706
 H       -10.8603600665        2.9281502758       -0.2396239776
 H        -9.4517801198        1.7242296839        0.1286691462
 H        -9.1198854961        2.8594817645       -0.8283956681
 H        -7.0036846062        3.2733225872        0.2538381919
 H        -7.2390150820        3.1080371683        2.0746364345
 H        -7.1858033156        4.6615894849        1.2208762028
 H        -7.2330565311       10.1535179514        1.8631886444
 H        -6.3715876278       10.6517804755        0.4584015211
 H        -6.1256876226        9.0007618810        1.2503045582
 H        -9.1895340096       11.0552439450       -0.2881209684
 H        -9.6103497151       10.0983463081        0.9117411729
 H        -9.8425032218        9.6332155174       -0.8361494010
 H        -4.3195738835        7.5265375738       -6.3149789362
 H        -5.5310038971        6.6893453203       -7.3726996740
 H        -5.0041709909        5.9286058019       -5.8995093605
 H        -6.4857499943        8.6215329829       -7.5991428167
 H        -5.5623615857        9.8873845647       -6.6567020213
 H        -7.2236448875        9.7628074387       -6.3339936416
 H       -12.1481044165        4.1711032202       -2.8422291924
 H       -13.5817072593        5.3351984106       -2.9978447251
 H       -12.2752242524        5.6931272823       -1.9815015430
 H       -12.5504405239        6.1159702516       -6.3942003029
 H       -13.3366680846        4.9028542948       -5.5053037166
 H       -11.7602297482        4.5538066015       -6.0663483392
 Na       -9.9386683296        7.0532092681       -1.7049937774
