117

 C        -8.5204252966       -3.8658977098        7.5957033892
 C        -8.0388216897       -3.8365176477        6.2275577841
 O        -8.7633614710       -3.7431325615        5.3064304936
 C        -6.5256697170       -3.7414887566        5.9560609414
 C        -6.4607276051       -2.2776090935        6.4322873858
 O        -6.0023543127       -1.9051586463        7.5099756412
 C        -7.0657914603       -1.1881339004        5.5594540588
 C        -6.3157103308        0.1489623878        5.7367894348
 C        -7.1708904541        1.3712976195        5.2230605621
 O        -8.3561659798        1.1868942211        5.0843280811
 C        -6.6043578210        2.7680424930        5.2009631916
 C        -6.5119520573        3.0098037412        3.5346446432
 O        -5.4854213697        3.4387553442        3.0118224907
 C        -7.8083605712        2.9550511476        2.6566043297
 C        -7.4585474792        3.0368872945        1.1055269550
 C        -8.5943360986        3.0950434402        0.1463343423
 O        -8.7536455581        4.0179218440       -0.6123726494
 C        -9.7165313222        1.9958729766        0.2330762659
 C       -10.9452404435        2.6278343297        1.0599590996
 O       -10.8245074399        3.0933355398        2.1523478265
 C       -12.3780601458        2.0453667004        0.5556824284
 C       -13.3925913069        3.2752067038        0.5361866372
 C       -12.8376096810        4.5159321114       -0.1972391047
 O       -11.6439593025        4.6766475708       -0.2297605017
 C       -13.7923930789        5.4991692925       -1.0062565582
 C       -13.3808067328        5.3659539744       -2.5415987532
 O       -12.3290244947        4.9244224322       -2.9196596188
 C       -14.5411656666        5.8650404924       -3.4487147597
 C       -14.0912294528        5.9822404677       -4.8398309352
 C       -13.9652222926        7.4255200133       -5.3721035099
 O       -14.8348188508        8.2140614948       -5.0525208402
 C       -12.8607233349        7.7153553735       -6.5099884949
 C       -11.4406794418        7.8993898037       -5.8819770519
 O       -10.4740928481        7.2083954092       -6.1586570112
 C       -11.3731965981        9.0119789889       -4.7942057788
 C       -10.0554011937        9.2158746029       -3.9882035304
 C        -9.5275743586        7.9624595180       -3.4452553503
 O       -10.0352017026        7.4962395161       -2.4109729844
 C        -8.1911143306        7.3033085919       -3.9663840143
 C        -8.6160765742        5.9311577288       -4.6770706919
 O        -9.3440286169        5.1332634456       -4.0644987576
 C        -7.8474968719        5.5040661463       -5.9088507884
 C        -7.4616108156        8.1715087072       -4.9996985296
 C        -7.2223312338        6.9763366794       -2.8080156122
 C       -12.9177915906        6.3653171356       -7.3739235521
 C       -13.1204179196        8.9363467462       -7.3304812672
 C       -15.2710054778        5.3288440074       -0.6978439679
 C       -13.3095407065        6.9774554831       -0.6489747008
 C       -10.2094026895        1.7970303494       -1.2276758511
 C        -9.3213961877        0.6010000310        0.8336303885
 C        -7.6452278845        3.8517457695        5.7656520609
 C        -5.2359729874        2.8945773688        5.8732692603
 C        -5.8551886596       -4.7093695079        6.9031277600
 C        -6.1560987138       -4.0512961712        4.4993310477
 H        -9.3385010196       -3.1545322486        7.7060812329
 H        -7.7634214494       -3.6984871680        8.3471381959
 H        -9.0681735840       -4.8270731325        7.8704136211
 H        -8.0921660376       -1.0524296594        5.8847989152
 H        -7.1565457983       -1.4216377922        4.5529035493
 H        -5.3819110144        0.1285496217        5.2189963549
 H        -6.2515999669        0.3006219020        6.8434885058
 H        -8.5009874940        3.6853104524        3.0205835369
 H        -8.4154547362        1.9853510493        2.7202673972
 H        -6.9879434753        2.0921062864        0.8234428217
 H        -6.7333418867        3.8178019406        0.9169280442
 H       -12.7173272427        1.4376293384        1.3465191033
 H       -12.2993210051        1.6796653897       -0.4500514892
 H       -13.6714320181        3.4997707936        1.4998473779
 H       -14.2809552836        2.8954277316        0.0407903698
 H       -14.8313471117        6.8618992568       -3.1027120426
 H       -15.4030052677        5.1652852795       -3.3299007390
 H       -14.8460380775        5.4587637198       -5.5961410011
 H       -13.0684514230        5.5713646912       -5.0516011953
 H       -12.2188594823        8.8150810037       -4.1573351245
 H       -11.6580276309       10.0318495052       -5.1687442681
 H       -10.3876875019        9.9210523742       -3.2873289785
 H        -9.2686488735        9.6847482904       -4.6373546569
 H        -8.1545936878        6.2838055643       -6.7025833834
 H        -8.0264957693        4.4898005592       -6.1154490256
 H        -6.7554437221        5.5580540414       -5.7424174316
 H        -6.9631822107        9.0933013718       -4.7218421479
 H        -8.0530226498        8.2579308613       -5.9211566710
 H        -6.6418582763        7.5679351620       -5.3153793933
 H        -7.5400143048        6.0171077876       -2.4452724632
 H        -7.2531781149        7.5972684299       -2.0047318285
 H        -6.2979054868        6.6018367030       -3.2826275065
 H       -12.6214029310        5.3644050052       -6.9217453236
 H       -12.2906668060        6.5778769183       -8.2694317649
 H       -13.9163969832        6.2644460949       -7.7478516896
 H       -12.3595535647        8.8375820190       -8.0529334987
 H       -13.0809453740        9.9323421303       -6.7668228603
 H       -14.1441876803        8.9291629414       -7.8352382800
 H       -15.5516585119        5.2738261795        0.3740687852
 H       -15.5920221667        4.3758858216       -1.1953905992
 H       -15.7308614550        6.0706564489       -1.2961017699
 H       -13.4454744121        7.0355003720        0.4861026896
 H       -13.9816551105        7.6649413147       -1.2040536076
 H       -12.2078341220        7.1364965118       -0.8120571965
 H       -10.5602657206        0.8124313559       -1.4085673538
 H        -9.4516788295        1.9361817880       -1.9447730257
 H       -10.9277346860        2.6004442680       -1.4654467942
 H        -9.5585465084        0.5095793414        1.8781400101
 H        -8.2768301158        0.4437899516        0.7093156793
 H        -9.8936353398       -0.1863492546        0.3041578408
 H        -7.5826773192        3.8524152047        6.8650664347
 H        -8.6051904282        3.5560845371        5.4344796772
 H        -7.4429688755        4.8919053613        5.3097152608
 H        -5.2955295219        2.4148214700        6.8924758638
 H        -5.0869534154        3.9579050530        5.8743299561
 H        -4.4112768257        2.3530403963        5.3088272823
 H        -5.9745454651       -4.4797732530        7.9297558283
 H        -4.7604665881       -4.8595544524        6.7919310129
 H        -6.3967035715       -5.5962413981        6.7025896574
 H        -7.1730789411       -4.2295105488        3.9514369956
 H        -5.5283056181       -4.9264002824        4.3849678464
 H        -5.6575771721       -3.2639095206        3.8896463418
 Na      -10.2647035715        5.1921721912       -1.8232450540
