117

 C       -13.4403454425        7.7867771759       -4.3612327330
 C       -12.1599203598        7.2256696256       -3.8306768702
 O       -11.3821168384        7.8787821900       -3.1989398580
 C       -11.8674605387        5.6612515273       -4.1041753871
 C       -10.1997313051        5.5997077811       -4.1194484572
 O        -9.6458960425        5.3067838872       -3.0947201134
 C        -9.4793005611        5.3376922548       -5.4499030322
 C        -7.9799651945        5.7531375920       -5.4196808681
 C        -7.7905103383        7.3006487178       -5.5780034077
 O        -8.8052503777        8.0276253774       -5.5639658976
 C        -6.3930042943        7.9487345533       -5.7542699830
 C        -5.9578561040        8.3291455269       -4.3429427908
 O        -5.4045402918        7.4039372109       -3.7255717923
 C        -6.1242322659        9.6525739173       -3.7400429634
 C        -6.0198804340        9.7405347833       -2.2942202911
 C        -7.3119325681        8.9805077483       -1.5748965236
 O        -7.8178502047        8.0501878757       -2.3412981733
 C        -7.8198830606        9.1604899661       -0.1607154321
 C        -8.0823620945        7.8037753252        0.6585986076
 O        -7.1761270683        6.9455499075        0.7250849176
 C        -9.3650326794        7.6609615051        1.5292808980
 C        -9.5763798730        6.2583896680        2.1401725366
 C        -9.6029466489        5.0701908539        0.9191449083
 O       -10.1112116775        5.3083487883       -0.1156318149
 C        -9.1641940172        3.5652925516        1.2047506224
 C        -9.6089492892        3.1713104303        2.8117672733
 O        -9.3779021961        3.9239918197        3.6971706350
 C       -10.2035949602        1.6930465973        3.0849800348
 C       -10.4618902097        1.3783642942        4.6539817635
 C       -10.4829515872       -0.0798492826        4.8812997569
 O        -9.4185113105       -0.6553852027        4.5841971622
 C       -11.6058530738       -0.8148790880        5.6246834805
 C       -11.3720851655       -2.3074564335        5.1733819695
 O       -11.2790580907       -3.2489241334        5.9237333520
 C       -11.5002875160       -2.5487092940        3.6108638882
 C       -11.4550518312       -4.0614394576        3.0992028357
 C       -12.9270591254       -4.4362413941        2.6138952506
 O       -13.8136128584       -3.6209827758        2.5472268214
 C       -13.0479003507       -5.8964215035        1.9900545449
 C       -12.1991411163       -5.8879870445        0.5791025337
 O       -11.4986503656       -6.6650327420        0.0658219193
 C       -12.3905565489       -4.4806108205       -0.2756032907
 C       -12.4743990406       -6.9739416921        3.0319543005
 C       -14.4720461166       -6.1618659810        1.6279906361
 C       -11.3427695896       -0.6379984036        7.1833876853
 C       -12.9465662839       -0.1822759465        5.4867009171
 C        -9.9490684462        2.5116180526        0.1938091787
 C        -7.6195972186        3.4925937538        1.1023865023
 C        -6.9011588474        9.9912731573        0.7809026899
 C        -9.0391625103       10.0197160065       -0.4329400827
 C        -5.1958031594        7.0816740197       -6.2410776086
 C        -6.5824288609        9.2450078807       -6.6291826108
 C       -12.4694294296        4.6903084941       -2.9038082973
 C       -12.5959352558        5.2329574175       -5.3727283603
 H       -14.1953987725        7.1927334632       -3.9926687375
 H       -13.5587948598        7.8826464275       -5.4858599439
 H       -13.7091587159        8.7741932813       -3.9013495462
 H       -10.1536466833        5.8002179072       -6.2038640976
 H        -9.5487649356        4.3013026593       -5.6350208855
 H        -7.4128428469        5.2568976632       -6.1999075752
 H        -7.6158810720        5.2963716635       -4.4702306898
 H        -7.1304768859       10.0518473785       -4.1547383068
 H        -5.3738238899       10.3239642774       -4.0945650245
 H        -5.9073571577       10.7757759690       -2.0119192488
 H        -5.0226146558        9.3274839155       -1.9656052830
 H       -10.1459310382        7.7998090806        0.6762234008
 H        -9.6945098125        8.4775688299        2.2095954526
 H       -10.6624592241        6.2759996073        2.4742023931
 H        -8.8683522868        5.8058914177        2.8679574586
 H        -9.5314206534        1.0313606683        2.6180248088
 H       -11.0727459015        1.4556393408        2.5015403056
 H       -11.4254822346        1.9083073311        4.8620960038
 H        -9.7669713938        1.9844138883        5.1796003907
 H       -10.6346472556       -1.9853665277        3.2314658886
 H       -12.3690985873       -2.1032629106        2.9702578433
 H       -11.1167448654       -4.6230420807        3.9913707529
 H       -10.7135257087       -4.0709985890        2.2855224826
 H       -11.4497658940       -4.0029663446       -0.2096975684
 H       -13.1017854863       -3.7527146346       -0.0122720655
 H       -12.5089268659       -4.6743641650       -1.2836618679
 H       -11.8877499446       -7.5797325891        2.3284719638
 H       -13.3168526039       -7.5356324100        3.3366636264
 H       -12.0434573478       -6.4274558608        3.8458735865
 H       -14.9379084769       -6.2186675553        2.6093912942
 H       -14.4666049092       -7.2173537579        1.0845573203
 H       -15.0627464841       -5.3771457275        1.2125386057
 H       -12.1134611222       -1.2674225343        7.6414920567
 H       -11.4339681653        0.4821116576        7.4598640595
 H       -10.3471223696       -0.9371899563        7.3296073040
 H       -13.7801219694       -0.8774745187        5.8533158021
 H       -13.0325753541       -0.0355902976        4.3815749325
 H       -13.2447983749        0.5930574309        6.2075007166
 H       -10.8152147154        2.2264802328        0.6891596970
 H        -9.3868149767        1.6722289187        0.1476976975
 H       -10.0806399086        2.5492390371       -0.8712664950
 H        -7.2965441878        2.8750046145        0.3252197469
 H        -7.2647793060        3.0179340706        2.0061661997
 H        -7.0304536092        4.4482081357        0.9244501293
 H        -7.3749130200        9.9458035307        1.8136661400
 H        -6.8379221709       11.0645212212        0.4546593249
 H        -5.9804184576        9.5101243510        0.9457206422
 H        -8.7434921327       10.9821899247       -0.9729232635
 H        -9.5967297242       10.4294118194        0.3916630402
 H        -9.6700450774        9.5522684689       -1.1491708604
 H        -4.2666310562        7.5954412387       -6.4269534994
 H        -5.4690266607        6.4648027609       -7.0857690147
 H        -5.0393449552        6.2796932385       -5.4949247558
 H        -6.8438347350        8.8747087833       -7.6269761193
 H        -5.6339969991        9.7416890580       -6.5979580687
 H        -7.1966756000        9.8810052697       -6.0622921813
 H       -12.2944850124        3.6578703430       -3.2665326666
 H       -13.5458255116        4.8599164353       -2.8188828327
 H       -12.0793991775        4.9499148770       -1.9300878323
 H       -11.9219679248        5.3058084754       -6.2330966453
 H       -13.5248887760        5.7457128329       -5.6496753570
 H       -12.8380097313        4.1576219077       -5.4035594952
 Na       -9.6973417602        7.0425413792       -1.7298319035
