117

 C       -13.2745447433        7.7791282659       -4.3414444930
 C       -12.0769386735        7.0841378589       -3.7502990680
 O       -11.2152366976        7.7410831775       -3.2407179169
 C       -11.8122910251        5.5428739974       -4.1340519901
 C       -10.3461639349        5.3396732911       -4.0996565386
 O        -9.7158232785        5.3228266167       -3.0875499069
 C        -9.4685404607        5.2279074806       -5.4244113723
 C        -8.0699687788        5.8583728118       -5.5935712555
 C        -7.8504833941        7.3292722102       -5.5699025647
 O        -8.8462936183        8.1033773691       -5.4529004315
 C        -6.3975132206        7.8678387185       -5.7468158333
 C        -5.8105307569        8.2208166094       -4.3763809409
 O        -5.3050685455        7.3157532870       -3.6476164212
 C        -6.0490894122        9.6592902976       -3.8100062395
 C        -5.9162977831        9.6128415877       -2.2624419346
 C        -7.1943429581        8.7502517240       -1.5583181126
 O        -7.7376635223        7.9433325774       -2.3318514218
 C        -7.6994547249        9.2235018836       -0.2222941647
 C        -8.0234643164        7.8005936718        0.6191630623
 O        -7.1836418397        7.0412427053        0.8947711145
 C        -9.4737101757        7.6192296170        1.1790425309
 C        -9.5751678835        6.2075435016        1.9266963180
 C        -9.7337475631        5.0090959230        0.9759539867
 O       -10.0194776604        5.3290805233       -0.2108057008
 C        -9.4177748894        3.4565158479        1.4100044438
 C        -9.6337242518        3.1124915075        2.8470228859
 O        -9.4353549748        4.0005931381        3.6540970002
 C       -10.2575518874        1.8210904409        3.1528715681
 C       -10.4797850169        1.5223800675        4.6400133560
 C       -10.3512079062       -0.0097412930        4.9259467719
 O        -9.4307581585       -0.7312505248        4.6522497024
 C       -11.6583140544       -0.7767985201        5.6566140151
 C       -11.4576076614       -2.2796505277        5.1871302308
 O       -11.2408056274       -3.1003641148        6.0135159652
 C       -11.5559767387       -2.5471500722        3.6002912647
 C       -11.5426773869       -3.9719830712        3.1510448467
 C       -12.8508093620       -4.4209754137        2.5766683681
 O       -13.8933435155       -3.6692283611        2.6090679579
 C       -12.9926191452       -5.8378514706        1.9994756385
 C       -12.1896840572       -5.6768191168        0.6153847069
 O       -11.6175039731       -6.6101227881        0.1421661156
 C       -12.3903298401       -4.3592772659       -0.1351024046
 C       -12.5683886404       -6.8536472760        3.0868066228
 C       -14.4541186410       -6.0790750090        1.5057076533
 C       -11.3800711260       -0.7007334257        7.2523434961
 C       -13.0009848913       -0.0684200043        5.3156687646
 C        -9.8880861274        2.5467549563        0.4108796667
 C        -7.7694884850        3.4115223975        1.1061905535
 C        -6.8373453194       10.1440253747        0.6300886851
 C        -9.0656044569       10.0079522413       -0.4296029476
 C        -5.3687433170        6.9660903531       -6.4617553350
 C        -6.6446637045        9.3188188424       -6.7029513334
 C       -12.2457439892        4.6794008912       -2.9011738062
 C       -12.5611559959        5.1281419301       -5.3855530228
 H       -14.3492718680        7.2747255643       -4.1403564620
 H       -13.1439716155        7.9334843927       -5.3865963342
 H       -13.4069541112        8.7279506344       -3.8940099689
 H       -10.1256440223        5.8392994288       -6.1229723414
 H        -9.4171262166        4.2628622513       -5.7796053942
 H        -7.7551272035        5.5309592680       -6.6423483304
 H        -7.3296786969        5.3845156403       -4.9418259359
 H        -7.0249209701       10.0022901352       -4.1890572676
 H        -5.2764177448       10.3640115463       -4.2222680861
 H        -5.6660360209       10.5103254695       -1.7340747798
 H        -5.0050026691        9.0265433490       -2.0698899793
 H       -10.2347440525        8.2229155219        0.6591207354
 H        -9.4299597303        8.1726914632        2.2233229503
 H       -10.4904025163        6.2591996108        2.6741697225
 H        -8.5817235941        5.9931872716        2.3997939804
 H        -9.6720468286        1.0141316984        2.6036098636
 H       -11.1650743337        1.7341984567        2.5687349822
 H       -11.3674989171        2.0711177736        4.9455312107
 H        -9.7288029568        2.1354769215        5.1562361937
 H       -10.7825768910       -1.9298889861        3.1396880632
 H       -12.4700998750       -2.1549069586        3.0919518507
 H       -11.2289695684       -4.5634329982        4.0419460426
 H       -10.7660108824       -3.9925172465        2.3230057928
 H       -11.6480904565       -3.5956920402       -0.0131130246
 H       -13.3303134761       -3.9635387425        0.1785510695
 H       -12.4769672588       -4.5187418804       -1.2296606291
 H       -12.1297833436       -7.6962413759        2.4947923245
 H       -13.5173256307       -7.1379824824        3.5030367674
 H       -12.0656797436       -6.3397293905        3.7792031194
 H       -15.2154887465       -5.5809283130        2.1014035403
 H       -14.6629587930       -7.1233289567        1.1899168950
 H       -14.5183487483       -5.3653323057        0.6829749087
 H       -12.1207287119       -1.3559715211        7.7633267277
 H       -11.6078533422        0.3104796013        7.4913532967
 H       -10.2874530450       -0.9047626870        7.4484276842
 H       -13.8376840371       -0.6966144042        5.5916450105
 H       -12.9961646375        0.1872959042        4.2136514322
 H       -13.3194112205        0.7096733113        5.9661776616
 H       -10.8676700525        2.1657417612        0.4490894816
 H        -9.2557734139        1.6361493426        0.2247462280
 H        -9.7752538788        2.9385941911       -0.5244905239
 H        -7.4824417630        2.7646914038        0.2858942103
 H        -7.3170462645        2.9884391414        1.9807639445
 H        -7.3194681933        4.3695294722        0.9839735987
 H        -7.3332697112        9.9842157329        1.6063572221
 H        -6.9762829508       11.2300540686        0.3975850593
 H        -5.7630774627        9.7859797880        0.8380020980
 H        -8.9667142591       10.9562660327       -1.0855348644
 H        -9.5331385376       10.4354203436        0.4969435756
 H        -9.8230649456        9.3889219328       -0.9745590207
 H        -4.4383200488        7.5390190510       -6.6855221486
 H        -5.7566451816        6.6917436838       -7.3970714520
 H        -5.0895894933        6.0526302317       -6.0260433165
 H        -6.8357285345        8.8825396031       -7.6664470485
 H        -5.7714523455       10.0085497578       -6.6903836585
 H        -7.4252494540        9.8115955149       -6.2454126509
 H       -12.2466611117        3.6424608251       -3.3060740897
 H       -13.2603308786        4.8738966401       -2.4928963691
 H       -11.5372949470        4.9285987939       -2.0556908541
 H       -11.8740645022        5.1456746770       -6.2725676298
 H       -13.4689424197        5.7020268027       -5.6304298678
 H       -12.8835017151        4.0511897068       -5.4223214880
 Na       -9.6755576110        7.0056644062       -1.6631583376
