117

 C       -13.1446590550        7.7803951072       -4.3254635101
 C       -11.9120161525        6.9863033522       -3.8783416484
 O       -11.1325608762        7.5997122804       -3.1129800831
 C       -11.7328442743        5.4056982288       -4.1320868865
 C       -10.1948439168        5.2665991102       -4.1958293682
 O        -9.5171566714        5.2441974850       -3.1296650436
 C        -9.5051242449        5.2399950991       -5.7068861560
 C        -8.1002492753        5.7414970206       -5.7196209690
 C        -7.9524279788        7.3686756144       -5.5771802300
 O        -8.7985018869        8.1375736901       -5.3212609571
 C        -6.4650714619        7.8496030001       -5.8766212729
 C        -5.8331425023        8.1126778044       -4.3635708753
 O        -5.2328780303        7.3525367958       -3.7417956210
 C        -5.9497512795        9.5520891804       -3.6713941207
 C        -5.8582119938        9.4239594104       -2.1152952221
 C        -7.0707503970        8.7621648246       -1.6929011415
 O        -7.6270677675        7.8961756323       -2.2092565421
 C        -7.7605342827        9.1927060221       -0.1681998234
 C        -8.0481469072        7.8983981213        0.6428994354
 O        -7.0962401289        7.2063082489        0.9123997001
 C        -9.4950502730        7.5127660192        1.1239040295
 C        -9.4400676647        6.2125039355        1.9251423022
 C        -9.7107358827        5.0395232015        0.8944917308
 O       -10.0086966704        5.0412936782       -0.3308149237
 C        -9.4461684224        3.5964776661        1.3072928410
 C        -9.7814346724        3.3306130503        2.8489307171
 O        -9.4916190767        4.0545898069        3.8026688700
 C       -10.3041515820        1.8358534061        3.2423756519
 C       -10.4616128106        1.5375369352        4.7390389027
 C       -10.3354515075        0.1071692746        5.0492433387
 O        -9.4362473299       -0.5963450981        4.6789828290
 C       -11.6265518237       -0.6412208570        5.6889383841
 C       -11.6285496211       -2.1679510606        5.2287481617
 O       -11.2270876205       -3.1033461412        5.9586782429
 C       -11.6310575258       -2.3675811212        3.7483122285
 C       -11.6540891329       -3.8434017678        3.3413272546
 C       -12.9391920305       -4.2843580052        2.7430941850
 O       -13.9368723027       -3.5930770868        2.7141551825
 C       -13.0199694232       -5.6940832222        1.9386188654
 C       -12.2393980085       -5.6041491412        0.6438225488
 O       -11.6047771504       -6.6465451237        0.2501272019
 C       -12.3620316386       -4.2721978616       -0.0501030219
 C       -12.6323713511       -6.8885178831        2.9050265972
 C       -14.5307258221       -6.0319910956        1.4080814886
 C       -11.4089543422       -0.7473749366        7.2031748075
 C       -12.9385621710       -0.0789442891        5.0752947680
 C       -10.0879936961        2.5232873113        0.3458856501
 C        -7.8068646253        3.5306355459        1.2535799676
 C        -6.7343229635       10.1324675409        0.5185729989
 C        -9.0746016454        9.9090640884       -0.5226393576
 C        -5.7163771104        6.9417799503       -6.7612340666
 C        -6.5670166616        9.2035674003       -6.6649649557
 C       -12.2975084776        4.6832347218       -2.8383345632
 C       -12.5458700084        4.9458929142       -5.3796219465
 H       -14.0991523099        7.2849890154       -4.2035055252
 H       -13.0744793532        8.1156407382       -5.3413913275
 H       -13.2636521715        8.6776403245       -3.7126964911
 H       -10.1231802402        5.7893492215       -6.3728365070
 H        -9.4663856331        4.0877822665       -5.9295579573
 H        -7.5644697392        5.3555394534       -6.6283342715
 H        -7.5604047217        5.3283745835       -4.8299527071
 H        -6.8251555995       10.0853350779       -3.8316680558
 H        -5.1225357847       10.1639352804       -4.1625298168
 H        -5.8555686872       10.4031327398       -1.6046093827
 H        -5.0546355793        8.9903865336       -1.5778364409
 H       -10.0711530113        7.5611459202        0.2111007339
 H       -10.0784654333        8.1990876737        1.7699144645
 H       -10.2824517386        6.1964153156        2.5908422532
 H        -8.4789623478        5.9478477116        2.3874611211
 H        -9.6261328914        1.0575809495        2.7271521529
 H       -11.2781046257        1.5707565802        2.7114577283
 H       -11.1933974877        2.1898287268        5.1217750379
 H        -9.5273723652        1.9000081252        5.2644997460
 H       -10.8793915118       -1.6842250699        3.3532301788
 H       -12.5165795748       -2.0267719610        3.3556701692
 H       -11.3147527027       -4.3483630456        4.2791075164
 H       -10.8817586746       -3.9350338836        2.5514087273
 H       -11.6289735995       -3.5380180584        0.3890771382
 H       -13.4071731073       -3.8902036244        0.1329193160
 H       -12.1548746040       -4.2855506712       -1.1651833131
 H       -12.5397279328       -7.7017055425        2.2974733197
 H       -13.4550286135       -6.9151853416        3.6316677402
 H       -11.7432698985       -6.4121465729        3.4344386920
 H       -15.3516603656       -5.4175783368        1.7717702926
 H       -14.6673677710       -7.0382667141        1.4600292307
 H       -14.5163421141       -5.6173775248        0.3805430095
 H       -12.2610294660       -1.3375057895        7.4981158101
 H       -11.5703073623        0.1786319983        7.6657543538
 H       -10.4009049518       -1.2188674752        7.3715578394
 H       -13.6486652641       -0.6809694705        5.4848886282
 H       -12.9716828366        0.0609967229        4.0215203894
 H       -13.3501654207        0.8244999542        5.5983956591
 H       -11.1985320970        2.6905943446        0.3014022573
 H        -9.9607638426        1.4133194230        0.3757753143
 H        -9.8608041959        2.6337472774       -0.7358261300
 H        -7.4166024449        3.0059702867        0.3228897457
 H        -7.4591291036        2.9506159281        2.1047014849
 H        -7.3447804551        4.4640167740        1.4199970486
 H        -6.8205751360       10.4533545996        1.5714555112
 H        -6.7627630167       11.0522063928       -0.0928800614
 H        -5.7295663396        9.5548366817        0.4490549687
 H        -8.8695434396       10.8003709647       -1.1074148047
 H        -9.5225967998       10.3763521537        0.4364925431
 H        -9.9791453671        9.3950696929       -1.0511605824
 H        -4.6964869832        7.2494611813       -6.9247072818
 H        -6.1444451914        6.7639441738       -7.7559479564
 H        -5.6142603987        5.9763401347       -6.3153660817
 H        -6.6746589716        8.8339062775       -7.6508684953
 H        -5.6846550276        9.8144177101       -6.5271254649
 H        -7.5009760558        9.7214807431       -6.2314025245
 H       -12.3764437976        3.6159651331       -3.1251124778
 H       -13.3474992564        4.9338146210       -2.5056105536
 H       -11.6259416043        4.9792699555       -2.0074824731
 H       -12.0906433834        5.2637222038       -6.3386304936
 H       -13.5907975352        5.3001070664       -5.3436585669
 H       -12.6010673965        3.8592428115       -5.5520945185
 Na       -9.6601421330        6.9695774548       -1.5982351803
