117

 C       -12.9053140509        7.6089304525       -4.5462933793
 C       -11.8414531335        6.9128631364       -3.7511316665
 O       -11.2171691782        7.4914385659       -2.9129638170
 C       -11.6231868164        5.3426963009       -4.0595519450
 C       -10.0128784154        5.1659387503       -4.4035078128
 O        -9.3114829120        5.0156100459       -3.4687718336
 C        -9.6156187033        5.3639885089       -5.9407894266
 C        -8.1458230980        5.7487760176       -5.9041621729
 C        -8.0047641651        7.2047068752       -5.5776342959
 O        -8.9346530163        7.9184428278       -5.0702451650
 C        -6.5876357403        7.8652125850       -5.9082722623
 C        -5.7274245130        7.9017926543       -4.6584837908
 O        -5.0762753457        6.9595076676       -4.2011472242
 C        -5.8477195912        9.1773311070       -3.8227407846
 C        -5.7599159667        9.2036492585       -2.2812212264
 C        -7.1129614703        8.6841816213       -1.5645898940
 O        -7.6576104916        7.6159652346       -2.1341314243
 C        -7.6968951607        9.2870211333       -0.2910941915
 C        -7.8989807027        7.9445596003        0.5539624963
 O        -6.9659705997        7.4081988454        1.0947855506
 C        -9.3333390215        7.6297376500        1.0423613346
 C        -9.3884083933        6.2950951805        1.8082292435
 C        -9.6943083255        4.9538293683        0.8225309399
 O       -10.0974550872        5.0062846691       -0.3115266869
 C        -9.4924045644        3.5986160514        1.3902001791
 C        -9.8610674743        3.3515851712        3.0091954631
 O        -9.7886561805        4.3312140185        3.7164946045
 C       -10.3939157919        2.0440632290        3.4125600266
 C       -10.3515249603        1.8103239925        4.9754039116
 C       -10.2393622232        0.2503000278        5.2298096056
 O        -9.2803433678       -0.3603438715        4.7742888185
 C       -11.5573812031       -0.4428529757        5.7233976445
 C       -11.4992381705       -2.1522000499        5.1708397457
 O       -11.3804158720       -3.0033157531        5.9608823225
 C       -11.7938994064       -2.4500777448        3.7062894115
 C       -11.8803932800       -3.9995176672        3.4471272928
 C       -13.2072535875       -4.2816243331        2.7813408638
 O       -14.2326800529       -3.5669845222        2.8219596961
 C       -13.2544488074       -5.5746559532        1.8860757057
 C       -12.2400880828       -5.4566860186        0.6768127428
 O       -11.5804343054       -6.3904959686        0.4500926539
 C       -12.0120551770       -4.1269845409       -0.1509815746
 C       -12.6807535718       -6.8026081255        2.7634781219
 C       -14.7958016709       -5.8012744884        1.4968372943
 C       -11.6545636598       -0.4277951468        7.1682617370
 C       -12.8855700604        0.1464314533        5.2046164852
 C       -10.2001886837        2.4906491727        0.5495383905
 C        -7.8969419715        3.1691203673        1.4705410817
 C        -6.7949447975       10.1834702464        0.6152384009
 C        -8.9653463492       10.0793749240       -0.6092222479
 C        -5.7201576822        6.9442990156       -6.7656236125
 C        -6.6613490379        9.3679550400       -6.5359373716
 C       -12.1634569598        4.6866625463       -2.7472491184
 C       -12.4038388906        4.8064467478       -5.3455284572
 H       -13.8580328965        6.8769793724       -4.5690610939
 H       -12.6331862177        7.7114085359       -5.5804374034
 H       -13.2451486399        8.5299700320       -4.1769904640
 H       -10.2406801797        6.2807949989       -6.2459403487
 H        -9.8488624123        4.5043309130       -6.4293116721
 H        -7.6821162590        5.4997652130       -6.8412218356
 H        -7.5430966518        5.3870143847       -5.0721648162
 H        -6.8164048866        9.7142489474       -4.0931654584
 H        -5.1343369259        9.8115323424       -4.2679437397
 H        -5.4814663479       10.1590878788       -1.8414979758
 H        -4.8955282949        8.5811042042       -1.8788314168
 H       -10.2239497508        7.7330354166        0.3804863263
 H        -9.5613195975        8.5092089309        1.6710229191
 H       -10.1653035272        6.3174315779        2.6135162713
 H        -8.4277325119        6.1410103957        2.2706431782
 H        -9.6894970478        1.3480845769        3.0382728279
 H       -11.2389334371        1.8473751902        2.7699966257
 H       -11.3573501830        2.1233120137        5.4199788020
 H        -9.6547121948        2.4704298295        5.4721885249
 H       -10.8339542983       -2.1494994181        3.2681477929
 H       -12.5581874567       -1.8104949397        3.1451588626
 H       -11.7518587742       -4.5056178811        4.3758012891
 H       -10.9781827987       -4.1488828747        2.9053655812
 H       -11.5903019130       -3.3508879628        0.4945676864
 H       -12.9705812176       -3.7349983075       -0.5127586729
 H       -11.3042932948       -4.2982730460       -0.9576614178
 H       -13.1442464481       -7.6721403589        2.1513972602
 H       -12.9919756782       -6.6723694589        3.7843052138
 H       -11.6768639889       -6.6989278466        2.6499291742
 H       -15.3265940939       -4.9800924875        1.9620516878
 H       -15.1748445299       -6.7203550261        2.0319856299
 H       -14.9756386531       -5.6543441970        0.4667348786
 H       -12.6897952651       -0.7056763722        7.3425044293
 H       -11.6871134128        0.5957381864        7.5828071340
 H       -10.9566736590       -1.1475665799        7.5438037121
 H       -13.6456473064       -0.5595170250        5.6728114735
 H       -13.0308669726        0.4671932093        4.1231309137
 H       -13.2275204015        1.0454355824        5.7069118672
 H       -11.1917084849        2.5837642510        0.1323066618
 H       -10.1697340064        1.4911016879        1.0229892131
 H        -9.6842375542        2.2980126224       -0.3886099458
 H        -7.4508455380        3.5342335894        0.5608012043
 H        -7.6234748875        2.0942162630        1.5057932035
 H        -7.4046055971        3.5757029159        2.4178188634
 H        -7.6006564538       10.4692414063        1.2807976873
 H        -6.5337588463       11.1134575616        0.1633845702
 H        -5.9990082780        9.6995538854        1.1618338691
 H        -8.7402327587       11.0230017386       -1.1775980563
 H        -9.6290567932       10.2817985917        0.1969152910
 H        -9.5756942210        9.5041373923       -1.2139314840
 H        -4.8783117360        7.5949449344       -7.1534230236
 H        -6.1685402955        6.6618794344       -7.7271992941
 H        -5.1643178546        6.0522618514       -6.3923344884
 H        -7.0822035082        9.2996464690       -7.5735128434
 H        -5.5623741257        9.5931467575       -6.5692869042
 H        -7.2231445480       10.0229041297       -5.9432645273
 H       -12.2794804379        3.6479909515       -2.7564808562
 H       -13.1850763510        4.9425573766       -2.7058766615
 H       -11.6808487130        5.1825673093       -1.9381297703
 H       -12.6577528549        5.5213376101       -6.0763990553
 H       -13.3181173223        4.3443742593       -5.0911978472
 H       -11.8890858138        4.1174274084       -5.9673624670
 Na       -9.4363890711        6.6112160512       -1.7151262131
