117

 C       -12.8236214678        7.6870334442       -4.8065290323
 C       -11.9925695633        6.8453151619       -3.7898125324
 O       -11.3680668399        7.3498799695       -2.8361612678
 C       -11.6032922130        5.3536746793       -4.0954720807
 C        -9.9900869166        5.2148602201       -4.4528059057
 O        -9.2246440330        4.7954166949       -3.5817802639
 C        -9.6816323896        5.2857836895       -5.9907152970
 C        -8.2550675805        5.6495698674       -6.3157571415
 C        -7.8558227326        7.0971772699       -5.6885095109
 O        -8.6011761328        7.7539075779       -5.0449380208
 C        -6.5680166079        7.8245922119       -6.1370247136
 C        -5.6357084599        7.9003664649       -4.6184731496
 O        -5.1606098649        6.8614102408       -4.2905743692
 C        -5.7381760406        9.0851958884       -3.7199679891
 C        -5.5826327041        8.8763387900       -2.1812008008
 C        -6.8288018743        8.5262669227       -1.5569218334
 O        -7.4681223523        7.7336686115       -2.1026440262
 C        -7.6796356473        9.3215507594       -0.2205595396
 C        -7.9267398144        7.9998544585        0.7005382397
 O        -6.9044697042        7.4286428487        1.1809072401
 C        -9.2511237790        7.4711573009        1.0951315387
 C        -9.2602325969        6.2189371183        1.8623961515
 C        -9.5687174180        4.9981694518        0.9962769466
 O       -10.0935389304        5.1063065448       -0.1329321692
 C        -9.3462593825        3.5336996621        1.5851993184
 C       -10.0045110523        3.5579594408        3.0589047717
 O       -10.1832960893        4.5344689029        3.7532815387
 C       -10.4496813156        2.0533595766        3.5966705025
 C       -10.3700546347        1.9059078000        5.1024103458
 C       -10.3142373387        0.3883478257        5.3454043561
 O        -9.3633056108       -0.3349899836        5.0764663013
 C       -11.5734053877       -0.3503887352        5.6154187790
 C       -11.5844082148       -1.9014401590        5.3464616052
 O       -11.4340820279       -2.7712812401        6.2169202584
 C       -11.7355244423       -2.3387136688        3.8503377882
 C       -12.0639531069       -3.8421960922        3.5437187636
 C       -13.3570947604       -4.1024571331        2.7521912538
 O       -14.2709153281       -3.4073177573        2.9786080263
 C       -13.4196878248       -5.4819097396        1.8831742966
 C       -12.2261742498       -5.3744528372        0.7619817718
 O       -11.4715768523       -6.2865328921        0.4098178097
 C       -12.2549739005       -3.9942193267        0.0206634456
 C       -13.0413241992       -6.7154398405        2.8185147860
 C       -14.7570575580       -5.7717942293        1.1489998581
 C       -11.5797929736       -0.3665096017        7.2521458636
 C       -12.8651577448        0.2787321705        5.0327669156
 C       -10.2715392117        2.5972534963        0.6634316384
 C        -7.9544270336        3.0666516269        1.6763618333
 C        -6.5741196487       10.3355840185        0.4449268145
 C        -8.8883617403        9.9450519385       -0.8863179042
 C        -5.6781496332        7.1418522761       -7.2570942054
 C        -6.9773392354        9.1726837568       -6.5492030980
 C       -11.7839228209        4.3846205775       -2.8685144619
 C       -12.4949232843        4.7641816629       -5.2115975397
 H       -13.7624727475        7.4815835615       -5.0613042025
 H       -12.2218425325        7.6476807368       -5.7632973465
 H       -12.7435604122        8.7830697646       -4.5023469654
 H       -10.3631791479        5.9380497067       -6.3820895422
 H        -9.7776363035        4.1592569979       -6.3032178489
 H        -8.2228071700        5.6696369812       -7.4255077177
 H        -7.6064993142        4.8242131048       -5.9488872608
 H        -6.7452789698        9.3929415440       -3.8869194457
 H        -5.1169252112       10.0272272026       -3.8474713863
 H        -5.2860047570        9.8540779135       -1.7927712410
 H        -4.7376859566        8.3121238666       -1.9196516752
 H        -9.8600090243        7.2319755147        0.1938597279
 H        -9.7424503381        8.3888178267        1.4153533322
 H       -10.0809998242        6.1124998287        2.6207069264
 H        -8.2451697632        6.0213755296        2.3987124492
 H       -10.0325950424        1.1007447192        3.2078147024
 H       -11.5077442794        2.1200089314        3.2330130195
 H       -11.1184559987        2.4246233615        5.6355170088
 H        -9.4167397235        2.3337796453        5.4774386282
 H       -10.8533521898       -2.0311277330        3.1996841331
 H       -12.5681067641       -1.7663504871        3.4580389499
 H       -12.0639097632       -4.4501378801        4.5197519925
 H       -11.1065662640       -4.1652655975        3.0611376914
 H       -12.3558825419       -3.1497872237        0.6772644643
 H       -13.1196520265       -3.9465119832       -0.6066810211
 H       -11.3552841969       -3.8661103862       -0.5330903643
 H       -13.0039253123       -7.5061666954        2.1617049403
 H       -13.8848566360       -6.7087347256        3.4645674510
 H       -12.0746495067       -6.4522030357        3.3314735792
 H       -15.5667198518       -5.0101169854        1.1391387314
 H       -15.2005149807       -6.5318135268        1.7766242430
 H       -14.4939273860       -6.1144017859        0.1198974414
 H       -12.4994402401       -0.7855942424        7.6706494308
 H       -11.5675881043        0.6817230653        7.6128112520
 H       -10.7104280159       -0.9925710908        7.4570700259
 H       -13.6958409973       -0.4056079594        5.1296241740
 H       -12.6895945063        0.4007732621        3.9619562979
 H       -13.1046120396        1.3720634670        5.2033122127
 H       -11.3188391035        2.7619270269        0.8540480640
 H       -10.2466827049        1.5727996651        0.7801309363
 H       -10.3707507407        2.9176342968       -0.3950491429
 H        -7.2731066908        3.6350004298        1.0869640072
 H        -7.8167383637        2.0959303124        1.3027486524
 H        -7.6968253722        2.9227800203        2.6949448380
 H        -6.7164145834       10.9759704315        1.3820546920
 H        -6.3299687160       11.0223242257       -0.4275189313
 H        -5.7527008385        9.6178931509        0.5521734912
 H        -8.5273456393       10.7571397729       -1.4737610783
 H        -9.7337584234       10.0860385707       -0.1355078713
 H        -9.4505345340        9.2498788274       -1.5939724999
 H        -4.7085649007        7.4840278296       -7.3428135681
 H        -6.0550131600        7.2299231907       -8.2673887257
 H        -5.4731130083        6.1121632037       -7.0541171684
 H        -7.4159452650        9.1523381107       -7.5256712235
 H        -6.0652533423        9.7030112690       -6.5752491126
 H        -7.8901539165        9.4722651105       -5.9325904333
 H       -11.4012879363        3.3662502533       -3.0950570596
 H       -12.8384807972        4.0722610251       -2.7339013482
 H       -11.3135830275        4.8320735429       -2.0115723159
 H       -12.4177572424        5.0582322358       -6.2746839312
 H       -13.5502290551        5.0049660763       -4.9354996754
 H       -12.4627303104        3.6653930447       -5.3301049791
 Na       -9.4006165821        6.1964515840       -2.0304025492
