117

 C        -8.5862778199       -3.8083151350        7.7834123230
 C        -8.1584054040       -3.7707403997        6.3339255424
 O        -8.9563539680       -3.8096817457        5.3988703082
 C        -6.5560959822       -3.6923263095        5.9581743358
 C        -6.2336490180       -2.1656335963        6.3647356934
 O        -5.7595691106       -1.9266566323        7.4656874969
 C        -7.0526655912       -1.0898599293        5.5660998442
 C        -6.4440573369        0.2790610147        5.8103827623
 C        -7.2660962374        1.4324094690        5.3074137026
 O        -8.3805198147        1.3187488064        4.8579913141
 C        -6.5175566167        2.8268948058        5.0753519914
 C        -6.5310839498        3.1424640162        3.5428560126
 O        -5.5011578219        3.4016564354        2.8941633948
 C        -7.7992100953        2.9299507719        2.7728273843
 C        -7.4300131681        2.7847947585        1.3160890867
 C        -8.5995550632        3.0077840719        0.3608981148
 O        -8.5155051067        3.9610997485       -0.4232150130
 C        -9.7337644946        1.9303239340        0.2255217687
 C       -10.9581386699        2.4268649831        1.1079237635
 O       -10.7734770309        3.2429512567        2.0055279914
 C       -12.3416795897        2.0801345211        0.6206837624
 C       -13.4164432012        3.2757050258        0.4722070445
 C       -12.8133761577        4.4806864212       -0.2126376209
 O       -11.6098395041        4.7136582814       -0.1113915953
 C       -13.7868114723        5.5406247759       -0.9125630855
 C       -13.5571459502        5.3731498194       -2.4227932398
 O       -12.5369514185        4.8487908987       -2.8805433350
 C       -14.6223310837        5.8253180390       -3.4240568913
 C       -14.2591280005        5.8704460301       -4.8576063090
 C       -14.1205618296        7.3514274350       -5.4571921251
 O       -14.7956398992        8.3204278426       -5.1359403380
 C       -12.9330916003        7.5704184692       -6.4930991551
 C       -11.4661235413        7.7379188756       -5.8054527499
 O       -10.4904342994        7.2357799158       -6.3080100619
 C       -11.4189199912        8.9565066726       -4.8713282370
 C       -10.1244969306        9.2178812593       -4.0483324096
 C        -9.4879957357        7.9479040769       -3.3955367310
 O       -10.0026599453        7.4028800838       -2.4602527722
 C        -8.0960520879        7.2289758158       -4.0905907318
 C        -8.6211554870        5.8926891237       -4.7120154079
 O        -9.2839559790        5.0521961191       -4.1283111602
 C        -8.1403116368        5.5766848551       -6.1664181797
 C        -7.5173425319        8.2754572614       -5.0823474629
 C        -7.1930761823        6.9003690764       -2.9004290966
 C       -12.8667357069        6.3194682822       -7.3971243231
 C       -13.2152684517        8.8289547500       -7.2854445697
 C       -15.2311217395        5.3405982063       -0.6224452771
 C       -13.2342686443        6.9929293765       -0.5489225381
 C        -9.9983166212        1.6960884096       -1.3080023437
 C        -9.1843413922        0.5927114924        0.7840223841
 C        -7.4950197923        3.9338475341        5.6489595955
 C        -5.2030431817        3.0090199127        5.8694404085
 C        -5.7218808263       -4.5998156252        6.9742957804
 C        -6.3511687100       -3.9892081552        4.4855337153
 H        -9.4395294822       -3.1772194122        8.0384050177
 H        -7.6881879665       -3.6485345876        8.3611641661
 H        -8.9951427420       -4.7973239543        8.1183574684
 H        -8.0570308646       -1.2049898894        5.8698916197
 H        -7.0389422416       -1.2893173811        4.4700109943
 H        -5.5210222762        0.2909358036        5.2240006040
 H        -6.3309585231        0.3299613669        6.9452565442
 H        -8.5012438905        3.8118258555        2.8825570616
 H        -8.4543548210        2.0826428077        3.0903216764
 H        -6.8194321991        1.9638006550        1.0076161249
 H        -6.7760974773        3.6525273930        1.2160646708
 H       -12.7362687029        1.4585059434        1.4216533485
 H       -12.2342724124        1.6503713213       -0.3292565277
 H       -13.7099897866        3.6602641520        1.4656681555
 H       -14.2533682288        2.8365942568        0.0421956527
 H       -14.9792336889        6.8726034243       -3.1301194409
 H       -15.4440432108        5.1085578523       -3.2520010025
 H       -14.8537753597        5.3057224017       -5.6095409557
 H       -13.1560551281        5.6312419241       -5.0365796633
 H       -12.3373891674        8.9598533915       -4.2977114507
 H       -11.5334798721        9.9291496828       -5.4258571593
 H       -10.5901797970        9.8964282623       -3.2738624596
 H        -9.4731611999        9.8446058179       -4.6434767495
 H        -8.6040165749        6.3560134480       -6.8351030871
 H        -8.2738970906        4.5003226082       -6.4407221517
 H        -7.0873826645        5.7470964419       -6.1873626359
 H        -7.4109259904        9.2590375389       -4.7258172405
 H        -8.1711645525        8.2256092458       -5.9175494247
 H        -6.5392707331        8.0245924480       -5.4518808270
 H        -7.4212577120        6.0170364545       -2.3969914191
 H        -7.4060125780        7.7180652188       -2.1024575037
 H        -6.2406074152        6.7071564316       -3.2953388573
 H       -12.4285779791        5.3705361478       -7.0666002721
 H       -12.3590380422        6.6832980138       -8.2820267057
 H       -13.9423222195        6.1165399385       -7.7194670442
 H       -12.6168077157        8.8577672358       -8.2397982805
 H       -13.0104753995        9.6332049218       -6.6587322975
 H       -14.2556222610        8.9371692105       -7.4716249115
 H       -15.4541910930        5.2668661567        0.4696732437
 H       -15.5372457613        4.4019025599       -1.0977822996
 H       -15.7736285647        6.1229384108       -1.2573299802
 H       -13.1537833535        7.1069471590        0.5410746968
 H       -13.9449168213        7.6735742711       -0.9921315254
 H       -12.2679691347        7.1194935473       -0.9386192656
 H       -10.5789238172        0.8199699236       -1.4877456508
 H        -8.9853691409        1.4158813516       -1.8334463388
 H       -10.3461864987        2.5943559371       -1.8512333464
 H        -9.5257482986        0.5019961166        1.8183922794
 H        -8.0512951739        0.5679284503        0.8102855194
 H        -9.4804836702       -0.2576874665        0.2678370496
 H        -7.4570396943        3.7555064782        6.7264032655
 H        -8.5126539254        3.7802408147        5.2687927496
 H        -7.1749677184        4.9355949428        5.4260319782
 H        -5.5385177401        2.5258715171        6.7677774915
 H        -4.9990048739        4.0973342425        6.0537689964
 H        -4.3481636640        2.4544074966        5.5211970465
 H        -5.7919270167       -4.2436957678        7.9992095399
 H        -4.6754133345       -4.4769927328        6.7956413349
 H        -6.0173377035       -5.6439777813        6.9251703433
 H        -7.2236161294       -4.5210381971        4.0048054351
 H        -5.3994843284       -4.5553450331        4.3041764138
 H        -6.2027572680       -3.0736827731        3.8233435072
 Na      -10.1734401297        5.2409336991       -1.7443188406
