117

 C       -12.3316721236        7.6487549476       -4.9792963763
 C       -11.6742228660        6.6189099680       -4.0121333678
 O       -11.3122771860        7.0158748854       -2.9421730124
 C       -11.5180753594        4.9782616494       -4.4736401915
 C       -10.0041569352        4.8939947423       -4.9043051613
 O        -9.1658922522        4.6879970048       -4.0517604934
 C        -9.7135561948        5.2446154532       -6.4229168923
 C        -8.3744789736        5.8142637188       -6.6541071154
 C        -8.0363724031        6.9802184810       -5.7990262686
 O        -8.6458396858        7.3897233198       -4.8377819368
 C        -6.6803491430        7.7564836100       -6.0908014809
 C        -5.7155849869        7.6383320401       -4.8656904259
 O        -5.2265014372        6.6380042529       -4.4694361150
 C        -5.6520346598        8.8583390488       -3.9286979125
 C        -5.3117865248        8.5877049202       -2.3602983206
 C        -6.6231057527        8.0880212943       -1.6601661001
 O        -7.2038885301        7.2595258417       -2.2358405291
 C        -7.3641599700        9.0117140258       -0.5096699440
 C        -7.4711387603        8.0002214239        0.6356872918
 O        -6.3823876219        7.7555040766        1.2760703620
 C        -8.8867731634        7.6688694998        1.2963711843
 C        -9.1038236386        6.3632297520        2.0250392975
 C        -9.4892135041        5.1961452060        1.1851541580
 O        -9.7267657823        5.4161152027       -0.0194311664
 C        -9.6634080280        3.7060050578        1.7516531012
 C       -10.4247311177        3.5649039125        3.3123485438
 O       -10.7728594324        4.5643619309        3.8486296607
 C       -10.5733352114        2.0165830943        3.7944989166
 C       -10.2331852356        1.7491186048        5.2654453172
 C       -10.4478314659        0.3243807000        5.5974079601
 O        -9.4444389495       -0.4219821618        5.5658249308
 C       -11.8466074624       -0.2560842492        6.0026084302
 C       -11.7881725943       -1.8463604683        5.6014285061
 O       -11.5969230454       -2.5817622370        6.5089158297
 C       -12.2137785580       -2.2153945120        4.1002830058
 C       -12.3532716880       -3.6761257845        3.8155066993
 C       -13.5703870667       -3.8932124129        2.6893852615
 O       -14.3358435739       -3.0172568218        2.7713472137
 C       -13.5613503369       -5.1760479577        1.9253057612
 C       -12.2618992436       -5.0542745716        0.8948317338
 O       -11.3787051347       -5.8085272375        0.8917399356
 C       -12.1228015500       -3.7125459962        0.0229080823
 C       -13.2404672730       -6.5170777030        2.7318722046
 C       -15.0530615552       -5.2901719110        1.4886871096
 C       -11.9148440489       -0.2187111629        7.4694575858
 C       -12.9138300587        0.4994106274        5.1634411932
 C       -10.2690804015        2.8470428435        0.6565594804
 C        -8.1265779114        3.3337458526        2.1749665460
 C        -6.3052530820       10.1514152071       -0.1678358546
 C        -8.6773537458        9.5824282187       -0.9836262768
 C        -5.9085177352        7.1861953945       -7.2068632084
 C        -7.2860869831        9.1609648487       -6.4586270176
 C       -11.5876047679        3.8302750567       -3.3292379852
 C       -12.5105950771        4.5968123500       -5.5850831592
 H       -13.4285852178        7.7491492104       -4.8543281481
 H       -12.2581627933        7.4062615160       -6.0795725447
 H       -11.8520922485        8.5803596328       -4.8058136119
 H       -10.4442955903        5.9293993631       -6.6329900633
 H        -9.8958208824        4.2652119254       -6.9689446231
 H        -8.2631586412        6.0029862285       -7.7213939928
 H        -7.5566571946        5.1068138657       -6.3765726927
 H        -6.5274252353        9.4893322900       -4.0665937993
 H        -4.7813328704        9.4693323377       -4.3681070832
 H        -4.7424655051        9.3922751698       -1.8422343015
 H        -4.6354959757        7.7663184139       -2.2529192350
 H        -9.5513868572        7.8464048388        0.4088490457
 H        -9.1708902466        8.3584308733        2.0403787253
 H        -9.8112100704        6.6006482073        2.8767002341
 H        -8.1934604022        6.0305616119        2.7135712077
 H        -9.9200479666        1.3964646618        3.2041362477
 H       -11.6134089624        1.8425319435        3.5021910516
 H       -10.7105381582        2.4116753027        5.9699687677
 H        -9.1433194474        1.7109086890        5.3868775749
 H       -11.3732223511       -1.8716365821        3.3778714403
 H       -13.1266156780       -1.6626669281        3.7931057333
 H       -12.5219039027       -4.3048368438        4.7098770857
 H       -11.3319528549       -4.0444554235        3.6537624965
 H       -12.9388184838       -3.0116944188        0.1620083999
 H       -11.9277705336       -3.7935150568       -1.0140106095
 H       -11.2837519629       -3.3438775580        0.5231630244
 H       -12.4622673385       -6.9210556120        2.0975263791
 H       -14.1422357505       -7.0239408500        2.8545737614
 H       -12.7058097248       -6.2313486890        3.5915571433
 H       -15.4123455027       -4.5034687672        0.8807928713
 H       -15.7764874878       -5.1428722106        2.3550441861
 H       -15.1459116732       -6.2933524295        1.1135359143
 H       -12.8674148738       -0.6197036818        7.8084050385
 H       -11.7858072402        0.8954974872        7.7171502318
 H       -11.2206153595       -0.8909790472        7.8785736778
 H       -13.8766185102        0.0002130162        5.2841069785
 H       -12.9696569101        0.4245655429        4.1209286718
 H       -12.7948898856        1.6003367754        5.3629750522
 H       -11.2542094584        3.1259648148        0.3463439717
 H       -10.4212789113        1.8827345526        0.9054625400
 H        -9.7225480657        2.9287021683       -0.2912932763
 H        -7.6005162373        3.1196895297        1.2853984209
 H        -8.0813242515        2.4346353294        2.8088636666
 H        -7.5334686263        4.1301768564        2.7410145907
 H        -6.5649099797       10.7245863339        0.7576473253
 H        -6.1803810555       10.7615450366       -1.0837179323
 H        -5.4321458341        9.5768572286       -0.0349510711
 H        -8.4341986899       10.3822768765       -1.6856724651
 H        -9.1836115239       10.0323024525       -0.0893979215
 H        -9.3390994654        8.8480672003       -1.4491707691
 H        -5.0245020076        7.6639638699       -7.4957223409
 H        -6.4377359447        6.9503077868       -8.1514349638
 H        -5.4693105734        6.2123238603       -6.8499235483
 H        -7.5541003394        9.0459201423       -7.5183079050
 H        -6.4265250000        9.7868818716       -6.6366722973
 H        -8.2007827222        9.4651204285       -5.8872759908
 H       -11.3073621596        2.9431379173       -3.8884001500
 H       -12.5283490867        3.6857603511       -2.7989375197
 H       -10.7775949046        3.9201728328       -2.6526800912
 H       -12.7909220892        5.3538169447       -6.2766972950
 H       -13.4635099199        4.2672677877       -5.1910917604
 H       -12.2130294864        3.7134113512       -6.1096096573
 Na       -9.1784116897        6.1024862552       -2.1666921717
