117

 C       -12.4899419598        7.2498782397       -4.8754939059
 C       -11.5037715327        6.2715359111       -4.2240473799
 O       -10.8939989696        6.6526916255       -3.2406385548
 C       -11.4485724922        4.7248551635       -4.7762428961
 C        -9.9974878308        4.5446369770       -5.0903734690
 O        -9.1912712324        4.2076635871       -4.2409232990
 C        -9.4814347962        4.9843326759       -6.4455256619
 C        -8.0482968556        5.4456233873       -6.4434364734
 C        -8.0155298884        6.9092796416       -6.0389545167
 O        -8.9916887841        7.3925641540       -5.6061287173
 C        -6.6342458661        7.8234900422       -6.1504451470
 C        -5.8688547697        7.4335702021       -4.9415132697
 O        -5.5920918161        6.3120167704       -4.5529755438
 C        -5.4247789656        8.5032188348       -3.9071655257
 C        -5.2085838975        7.8313103560       -2.4516213321
 C        -6.5214923649        7.5201319777       -1.8027768303
 O        -7.0537712169        6.4573640166       -2.1140093932
 C        -7.1151392435        8.5784821746       -0.7366295005
 C        -7.2344834717        7.6340849632        0.6155379341
 O        -6.3270875275        6.9268548256        0.9552088079
 C        -8.4647697293        7.6790999844        1.5325059544
 C        -8.8099710781        6.2720869371        2.2322170691
 C        -9.0867772962        5.2250629501        1.2288978302
 O        -9.2298769652        5.4621271836        0.0247078283
 C        -9.2031324207        3.7660524515        1.7893363781
 C       -10.1272714002        3.7307665928        3.0621976761
 O       -10.6495399044        4.6450722662        3.6355795900
 C       -10.2640896318        2.2907555918        3.5898799616
 C       -11.1110295974        2.3271916486        4.9323338595
 C       -10.9036664604        0.8779820007        5.5373707975
 O        -9.9353916628        0.1979329550        5.3640302853
 C       -11.9838687963        0.1941213681        6.4032944548
 C       -12.2894583643       -1.3355400115        5.9920610021
 O       -12.2615546660       -2.3518276660        6.7743129022
 C       -12.5492482709       -1.7085812081        4.4918347835
 C       -13.0977954771       -3.1919220079        4.2771236993
 C       -13.7570255890       -3.3131690360        2.9610623224
 O       -14.3656276559       -2.3800732876        2.4338756194
 C       -13.5824182355       -4.7679581902        2.0482953333
 C       -12.3492597704       -4.6615925536        1.1990114611
 O       -11.3620266086       -5.2205714309        1.4794800931
 C       -12.3599040118       -3.5601062132        0.0334951870
 C       -13.3344677283       -5.9628247293        2.9078260106
 C       -14.9238123897       -4.9315088550        1.4112185626
 C       -11.7950017645        0.3169762010        7.8900201678
 C       -13.4942733450        0.8121138229        6.2932495695
 C        -9.5358565009        2.7139864231        0.6620262950
 C        -7.8335351533        3.3747244031        2.3722380117
 C        -6.2991140290        9.9257010975       -0.3643086171
 C        -8.5979300836        8.9728079764       -1.2413949047
 C        -5.9215068772        7.5579471832       -7.4530709572
 C        -7.2158187870        9.3207539135       -6.2077541774
 C       -11.7475162132        3.7147736359       -3.5870731210
 C       -12.4967659264        4.6113563957       -5.8860952148
 H       -12.3989871373        7.2820593389       -5.9189956902
 H       -12.4162069366        8.2532028067       -4.4339138506
 H       -13.5049430036        6.8912442818       -4.6142461005
 H       -10.2280304795        5.6301086442       -6.8964880194
 H        -9.5417231956        4.0777792872       -7.1370998214
 H        -7.5863621179        5.1802246565       -7.4263367636
 H        -7.4112517592        4.8804903834       -5.7430865903
 H        -6.2390397007        9.2500061893       -3.8536667938
 H        -4.4987550026        9.0480134817       -4.1763122158
 H        -4.7828754655        8.6922834967       -1.9694658365
 H        -4.6397453478        6.9053280560       -2.3090359375
 H        -9.3284807494        8.0348418393        1.0937374367
 H        -7.9287762966        8.4076421971        2.3268874022
 H        -9.6974905842        6.2718576052        2.9415442596
 H        -8.0971728115        5.9986635164        2.9762547502
 H        -9.2532783639        1.7583240656        3.4097333681
 H       -10.9200576052        1.7843172839        2.8232275681
 H       -12.1517413845        2.3734585810        4.7119514775
 H       -10.7546143921        3.1852447990        5.4604763030
 H       -11.7317369612       -1.5498205548        3.7856879628
 H       -13.3576746592       -1.0168157124        4.0901033974
 H       -13.8347909532       -3.5071891396        5.0920589429
 H       -12.2421384596       -3.9829739356        4.3831119989
 H       -11.6445394897       -3.8587576320       -0.6589252392
 H       -12.2398060425       -2.5589257812        0.3482990332
 H       -13.3015174266       -3.7731747040       -0.4019238115
 H       -14.0968223389       -6.6138773779        2.6284974694
 H       -13.3855331523       -5.7206141805        3.9934958615
 H       -12.2951703073       -6.4235699477        2.6833985075
 H       -15.2263095469       -4.0296595844        0.8313849593
 H       -15.6146965599       -5.2262831149        2.1093726412
 H       -14.9110324183       -5.7388587533        0.6536556334
 H       -12.5489841487       -0.3867888954        8.2990506124
 H       -11.6790140094        1.2780975115        8.2896507922
 H       -10.8065651545       -0.2088101472        8.0624254529
 H       -14.2345996334        0.3076645604        6.8632101303
 H       -13.8408603066        0.9038473692        5.2820733630
 H       -13.6325375541        1.7607295420        6.8131860481
 H       -10.5787621906        2.8935962864        0.3666911633
 H        -9.4648270608        1.7034867151        0.9216561148
 H        -8.8696934972        2.6133715590       -0.2185462241
 H        -6.9325990790        3.6899746111        1.8440447086
 H        -7.9382764896        2.3406223540        2.2569435739
 H        -7.6890935731        3.6840570380        3.3483514458
 H        -6.7417387960       10.3490555900        0.5320745932
 H        -6.3615670096       10.5789192010       -1.2444848222
 H        -5.2793565815        9.5018708705       -0.2237892043
 H        -8.4458774616        9.7692471147       -1.9311465225
 H        -9.1063622377        9.4981763913       -0.3613538239
 H        -9.0352491959        8.0219877337       -1.7072716105
 H        -5.0220359157        8.1608216958       -7.6118890590
 H        -6.5021326733        7.4951970875       -8.3584381371
 H        -5.5965825467        6.5626503055       -7.4404370441
 H        -7.6546243270        9.2854729932       -7.1691142590
 H        -6.5323675989       10.1428824213       -6.0100422764
 H        -8.0383216525        9.3151754796       -5.4193024963
 H       -11.3911244930        2.7895659319       -4.0441213570
 H       -12.8237854769        3.5717129499       -3.4603867264
 H       -11.1987477564        3.8008879760       -2.6488936046
 H       -12.0331262326        4.8731228359       -6.8461798421
 H       -13.4035658110        5.1862158113       -5.7624611205
 H       -12.7381478321        3.5416396114       -5.9727124686
 Na       -9.0151827656        5.5885212261       -2.3150806551
