117

 C       -12.5022016967        7.1748187986       -4.7838201873
 C       -11.5426671918        6.1960314290       -4.1229869612
 O       -10.8008857738        6.5435030763       -3.2061566868
 C       -11.4207415429        4.7819859978       -4.7147227755
 C        -9.8319859135        4.6089808051       -5.0052330498
 O        -8.9998755401        4.2157870016       -4.2310626468
 C        -9.3997112204        4.8730532697       -6.4847071629
 C        -7.9029050226        5.3618269929       -6.4154853788
 C        -8.0414147650        6.9376196498       -6.0792130204
 O        -9.1145995513        7.3631574044       -5.7540657605
 C        -6.7974432800        7.7905168753       -6.1912229856
 C        -5.9085008792        7.4136695541       -4.8438721165
 O        -5.7453625745        6.2546794951       -4.7699738888
 C        -5.4684295673        8.5418797273       -3.6846825762
 C        -5.0997416208        7.7826214989       -2.4505949853
 C        -6.5387742085        7.4442534033       -1.7570262822
 O        -7.1631271408        6.5366346114       -2.1829071300
 C        -7.1925589531        8.4031384158       -0.6879876913
 C        -7.1894904727        7.5618702695        0.6423794070
 O        -6.2170077495        6.7082161205        0.8269692602
 C        -8.5157612108        7.7350591220        1.5355928881
 C        -8.7624973953        6.2959793861        2.2199343089
 C        -8.9937282657        5.2317532255        1.2212053594
 O        -9.2703576964        5.4493714844        0.0098757295
 C        -9.0355000245        3.7530456399        1.8022815974
 C       -10.0852062096        3.7135499451        3.0587353141
 O       -10.5318301294        4.7320449415        3.5238130780
 C       -10.4131735390        2.3061693038        3.5347195889
 C       -11.3411153826        2.1480833575        4.7669493290
 C       -11.0927279977        0.8023518205        5.5362075588
 O        -9.9894882261        0.2885367933        5.2868442565
 C       -12.1746927237        0.1592178630        6.5318610081
 C       -12.3902436800       -1.3614628650        5.9695038206
 O       -12.3707993842       -2.2080639754        6.7899747172
 C       -12.6631959084       -1.5276967957        4.5258367969
 C       -13.0506096074       -3.0634127611        4.3352350039
 C       -13.7089683723       -3.2669485651        2.9445256221
 O       -14.2674583358       -2.3054877676        2.4009699818
 C       -13.6450948707       -4.6189662168        2.2220643161
 C       -12.2015644384       -4.4576603130        1.1693072367
 O       -11.2170717664       -5.0364896750        1.4929213659
 C       -12.4716583359       -3.5824026528        0.0119740344
 C       -13.5388243676       -5.9902734922        3.1904898671
 C       -14.9656183630       -4.8265807919        1.3482003500
 C       -11.6633329371        0.3975943223        7.9992323469
 C       -13.5863461158        0.9291147962        6.3914160450
 C        -9.4634452365        2.8293550602        0.7155376067
 C        -7.5558288324        3.3900830142        2.3957019169
 C        -6.3256114554        9.6789867505       -0.4927169248
 C        -8.5556933886        8.7583814431       -1.2146880945
 C        -5.9427610783        7.5106985818       -7.4758088940
 C        -7.1036411438        9.3232676537       -6.1316344922
 C       -11.9313596574        3.8957468664       -3.5632768396
 C       -12.2849048285        4.5508334524       -5.9543298767
 H       -11.9956767036        7.5500767100       -5.7895365824
 H       -12.7566445213        8.0043994273       -4.1592221530
 H       -13.3423408898        6.6761848406       -5.0813163747
 H       -10.0587827945        5.5626462664       -6.8344546390
 H        -9.6877811838        3.9953450471       -7.1368987413
 H        -7.2790335835        5.1017593707       -7.3033261935
 H        -7.3290854674        4.8842252177       -5.6119788956
 H        -6.1567856961        9.3195378590       -3.6334507883
 H        -4.5132436255        8.8947229786       -4.1458127329
 H        -4.3329915221        8.3577575709       -1.8652373142
 H        -4.7748927518        6.7777800692       -2.7431186015
 H        -9.4024142305        7.9123816291        0.8888642795
 H        -8.3783021957        8.4255753960        2.3803676956
 H        -9.6698645935        6.2942033317        2.7740682070
 H        -8.1587955090        6.0622150494        3.0357316880
 H        -9.3284496085        2.1014519845        3.7061596252
 H       -10.6483942096        1.5514477493        2.7604740651
 H       -12.3956916193        2.1691246649        4.5319123939
 H       -11.0111146045        2.9643566507        5.4657991416
 H       -11.7985418173       -1.3544183344        3.8975446681
 H       -13.3444117834       -0.7553078421        4.1690352551
 H       -13.8872541797       -3.2772985266        5.0056545746
 H       -12.1842274198       -3.6460951885        4.7410220721
 H       -11.5061243817       -3.3016343897       -0.4512684657
 H       -12.9072401496       -2.7282031378        0.4969892857
 H       -13.0649015842       -4.1053571606       -0.6944563005
 H       -14.2594549822       -6.7324070094        2.6444532389
 H       -13.8471081661       -5.8795443046        4.2879943733
 H       -12.4749416901       -6.3303815774        3.1310266813
 H       -15.0726595137       -4.1645177208        0.5251414496
 H       -15.8734197755       -4.8305402881        2.0313744913
 H       -14.9948145726       -5.7852862691        0.8610721936
 H       -12.3756600057       -0.0573170072        8.6643538440
 H       -11.3697935089        1.4592307533        8.2144467180
 H       -10.7555532872       -0.1075936153        8.0838773324
 H       -14.2360586924        0.6607159793        7.2094435837
 H       -14.0308079456        0.8469814806        5.4403573438
 H       -13.6737350536        1.9861958379        6.6758447175
 H       -10.3785727005        3.1639732127        0.1273914232
 H        -9.5699769798        1.7807268899        0.9935126523
 H        -8.5973135282        2.5911406030        0.0157308400
 H        -6.7669493594        3.6544105967        1.7784963695
 H        -7.5175957959        2.3509304228        2.4926417380
 H        -7.4363751117        3.9554385583        3.3552828237
 H        -6.9270448526       10.2358813189        0.2427200510
 H        -6.2497508895       10.2323416468       -1.4774249761
 H        -5.3909277877        9.3211876444       -0.1447334631
 H        -8.1794137304        9.3660391486       -2.0736876059
 H        -9.0395618263        9.5259610477       -0.5294271962
 H        -9.0963527615        7.8339603281       -1.5199505529
 H        -5.0383155488        7.9863859638       -7.4938930752
 H        -6.3773253005        7.5405690873       -8.4649227850
 H        -5.7199642256        6.4394052577       -7.4159555968
 H        -7.6972904757        9.5862641940       -6.9606469438
 H        -6.1153933526        9.6817419076       -6.2785387283
 H        -7.4138443395        9.7188542961       -5.1611960494
 H       -11.6012749943        2.8199901925       -3.7514572697
 H       -13.0797569199        3.8352674646       -3.6837281480
 H       -11.5770751318        4.1762371987       -2.5479701248
 H       -12.1616679248        5.3312307068       -6.7362744888
 H       -13.3651041942        4.5039066880       -5.6612536217
 H       -11.9366455993        3.5833675294       -6.4290994099
 Na       -9.0968352062        5.4491102112       -2.4941937758
