117

 C       -12.5106964498        7.2285125749       -4.6809124304
 C       -11.4691865538        6.2300337714       -4.1456590999
 O       -10.8745344908        6.6185532790       -3.1524968635
 C       -11.3316148788        4.7176067768       -4.7086427280
 C        -9.8283055322        4.5053503560       -5.0568174141
 O        -9.0185340396        4.1806751154       -4.1932298611
 C        -9.2342366694        4.6685734979       -6.5049247377
 C        -7.9448984868        5.5175290466       -6.4488429238
 C        -8.0686648406        6.9831764210       -6.1823647584
 O        -9.2369695998        7.3973262931       -5.8624594460
 C        -6.7412508374        7.8358315451       -6.1364311378
 C        -5.9904353024        7.3826149995       -4.8168839554
 O        -5.6819644616        6.1881816982       -4.7699496422
 C        -5.4993349991        8.2824407678       -3.8039508721
 C        -5.0983436471        7.6434214030       -2.4790871414
 C        -6.4959069781        7.3231763181       -1.8211231683
 O        -7.2091524752        6.4772405593       -2.3679128242
 C        -7.1771426492        8.2788946001       -0.7092383565
 C        -7.2085076035        7.4269301148        0.5350215752
 O        -6.3135938148        6.6623258954        0.8404306107
 C        -8.3320651390        7.6944347214        1.4768019627
 C        -8.6954775269        6.4163182451        2.2258787185
 C        -8.9822068507        5.2538846040        1.2513079558
 O        -9.2377801167        5.3767234951        0.0610806369
 C        -8.9088687756        3.7702271518        1.7585467159
 C        -9.9768109245        3.6439810938        3.0172788567
 O       -10.5137308745        4.6614372581        3.4568016001
 C       -10.4883380672        2.2488636473        3.6067298325
 C       -11.5752766242        2.1583508409        4.5799797956
 C       -11.2556628390        0.8445513669        5.4259273652
 O       -10.1764656352        0.2729343658        5.3900817286
 C       -12.2676723588        0.2808584846        6.5072350445
 C       -12.4795679570       -1.2473687150        6.1401586509
 O       -12.4461441527       -2.0953269792        6.9461421456
 C       -12.7730685003       -1.4545566151        4.6247764977
 C       -13.0208967928       -2.9763119202        4.3194588501
 C       -13.7078401224       -3.2010513674        2.9435914374
 O       -14.1362375265       -2.3207837327        2.2695338909
 C       -13.6293013149       -4.6205548885        2.2570116884
 C       -12.3917833304       -4.4084395133        1.3598426313
 O       -11.2326221773       -4.8090866013        1.5365236581
 C       -12.5895187738       -3.5970198732        0.0107559832
 C       -13.6017846574       -5.7199956284        3.3409588847
 C       -14.8284040286       -4.6904908768        1.3503209084
 C       -11.5339096718        0.3426310912        7.8719724055
 C       -13.5416735285        1.0294398283        6.4697748752
 C        -9.3109190790        2.8663504476        0.6744925344
 C        -7.5023632507        3.4716711643        2.3804886170
 C        -6.2533713467        9.5734737061       -0.4617872005
 C        -8.6091514920        8.6573408288       -1.2433711978
 C        -5.9296177248        7.4558361741       -7.3420993000
 C        -7.0787572517        9.4577426628       -6.1512934826
 C       -11.9700628949        3.9185937395       -3.5115577086
 C       -12.0160737622        4.4554274605       -6.0539099376
 H       -12.0038859961        7.9109296476       -5.3592891433
 H       -12.8936920050        7.7699627232       -3.8173030210
 H       -13.3471837114        6.7496955137       -5.2866160413
 H       -10.0423841126        4.9799063178       -7.2170048238
 H        -9.0272062603        3.7163188746       -6.8461271135
 H        -7.5112268317        5.4581374577       -7.4331568121
 H        -7.1386046756        5.0913104438       -5.8428367815
 H        -6.2870186980        9.0261858816       -3.7758235328
 H        -4.6601076418        8.6921211183       -4.3440963934
 H        -4.5985465708        8.3506993120       -1.7921552543
 H        -4.5916608657        6.6777804615       -2.6236088690
 H        -9.2883107464        7.9862201971        0.9285763599
 H        -8.1524221599        8.2628600264        2.2800091846
 H        -9.3519137933        6.7877957818        2.9522632020
 H        -7.9601334841        6.0772387905        2.9707762262
 H        -9.6093569505        1.7510641284        3.8371838261
 H       -10.8662194906        1.6307666097        2.8034057733
 H       -12.5899010806        1.9642497626        4.1398061543
 H       -11.6206574849        2.9137904174        5.4157403990
 H       -11.8580780844       -1.2282495188        4.0673944656
 H       -13.4392780316       -0.7339719677        4.2389927767
 H       -13.7033035707       -3.3168865037        5.0680324798
 H       -12.0672386446       -3.4282824173        4.4725642466
 H       -11.6428428747       -3.0078434425        0.1530082649
 H       -13.3499584821       -2.7891934371        0.0653892114
 H       -12.4283895400       -4.2344220962       -0.8901710309
 H       -14.0026928866       -6.7287923523        2.9604016098
 H       -14.2475279695       -5.3824071431        4.2054908333
 H       -12.5867247858       -5.7110597345        3.7015880666
 H       -14.7098816616       -3.9742493260        0.5608325179
 H       -15.7588827620       -4.4591135491        1.9501776176
 H       -15.0143007517       -5.5688611909        0.7588521270
 H       -12.2398919257       -0.0168032962        8.5657205632
 H       -11.1945865796        1.3737839536        8.1120527075
 H       -10.6315936316       -0.2422444871        7.8655108324
 H       -14.0513201346        0.8014079514        7.4107998584
 H       -14.1069548274        0.8877252812        5.5048699403
 H       -13.6571661022        2.0755932905        6.6050819834
 H       -10.1976330943        3.1627742966        0.0807032985
 H        -9.3666830577        1.7387502411        0.9817410842
 H        -8.4821382416        2.6918900404        0.0011664247
 H        -6.8411431506        3.5935621755        1.5308962346
 H        -7.3443857071        2.4112055501        2.6901395642
 H        -7.2278250179        4.2592432623        3.1138029416
 H        -7.0123068791       10.1887643819       -0.0178988870
 H        -6.0946668641        9.9481223416       -1.4658084515
 H        -5.3503645827        9.3698241584        0.1272495193
 H        -8.5253395133        8.9070857218       -2.3696751206
 H        -8.9501102956        9.5133921779       -0.7320507410
 H        -9.1421088511        7.7709566753       -1.0381270227
 H        -5.0192167345        8.0260322576       -7.5107627684
 H        -6.5096556691        7.6004876407       -8.2452823637
 H        -5.6666868813        6.3833355387       -7.4542219462
 H        -7.7873830667        9.7067935343       -6.9603093787
 H        -6.1087636960        9.9150256725       -6.3410955308
 H        -7.3124661966        9.8349184543       -5.2338693411
 H       -11.9209290863        2.7811223799       -3.5219909928
 H       -13.0725019406        4.1297107029       -3.5894146719
 H       -11.4967382296        4.3074710309       -2.5568184525
 H       -12.3755498558        5.3577198251       -6.5833314462
 H       -12.9326563682        3.8726346034       -5.7900009995
 H       -11.3589937022        3.9283337759       -6.7792012605
 Na       -9.1389683462        5.2903851384       -2.3890421920
