117

 C        -8.6287201137       -3.7599361808        7.9087145180
 C        -8.1925591187       -3.8143218918        6.4191210631
 O        -9.0821963730       -3.8624874372        5.5508034694
 C        -6.6625336491       -3.6162410141        6.0633509830
 C        -6.3358310666       -2.1104810929        6.4532554410
 O        -5.4804331644       -1.8978064864        7.2582510287
 C        -6.9418689004       -0.9903657894        5.6111448247
 C        -6.3822948255        0.4573871783        5.9022398731
 C        -7.2869921976        1.4969472666        5.2455152539
 O        -8.4419050010        1.3135194563        4.8425292333
 C        -6.6119462288        2.9161873471        5.1588535269
 C        -6.4220669036        3.1304780734        3.5287535164
 O        -5.3842243086        3.3800844271        3.0253489036
 C        -7.7497192515        3.0727964013        2.7769063945
 C        -7.3739427471        2.7430484885        1.3541670793
 C        -8.4871748739        2.9412188886        0.3265291334
 O        -8.4824167213        3.9981861563       -0.3176295966
 C        -9.5932794661        1.8732909110        0.2011285741
 C       -10.9603327888        2.5106746714        0.9429715697
 O       -10.6894733693        3.2082528529        1.8848024541
 C       -12.4598426535        2.0364368922        0.6129879648
 C       -13.4127855785        3.2349653732        0.5097000082
 C       -12.7924733494        4.5129986029       -0.0761935771
 O       -11.5931968705        4.7442068005       -0.0778424361
 C       -13.7761327428        5.5407070404       -0.8831171458
 C       -13.6129619889        5.3300355489       -2.4407819561
 O       -12.6068290922        4.8249707169       -2.9154838429
 C       -14.8091845533        5.8728270058       -3.3690501204
 C       -14.3414773985        5.8789356151       -4.8204128408
 C       -14.0133698645        7.2816371360       -5.4264122488
 O       -14.7253489144        8.1837836928       -5.1343758567
 C       -13.0019700188        7.4977430499       -6.5768127287
 C       -11.5775434605        7.8137096172       -5.8965840033
 O       -10.5966655487        7.2391215315       -6.3205148690
 C       -11.4894879957        8.9321772116       -4.7995479869
 C       -10.0778904170        9.0742787121       -4.0834740698
 C        -9.5092959226        7.8121448333       -3.5357564226
 O        -9.9860617795        7.3802719798       -2.5004702062
 C        -8.2828944484        7.2768240248       -4.1730250682
 C        -8.6051549750        5.8938932397       -4.7884488613
 O        -9.1784308652        5.0686704596       -4.1181432868
 C        -8.3652949123        5.5833106207       -6.3547397295
 C        -7.5734168108        8.2582529741       -5.1002366269
 C        -7.1810074265        6.8950857347       -2.9841957377
 C       -12.7926003073        6.2519138331       -7.5584799148
 C       -13.3807788743        8.7461282906       -7.3613135741
 C       -15.2453383923        5.3801622257       -0.3837912190
 C       -13.2247723380        6.9589595518       -0.4364011422
 C        -9.8106256913        1.6613105596       -1.2931504882
 C        -9.2098138242        0.4741126257        0.8327602074
 C        -7.5059190228        4.0841512376        5.6265380614
 C        -5.1512339441        3.0698914826        5.7252235957
 C        -5.6710520625       -4.4850099255        6.8748196209
 C        -6.4864401595       -3.9446786398        4.6102710719
 H        -9.6168631743       -3.2796085348        8.0126577206
 H        -7.7922493128       -3.4379407582        8.5594390955
 H        -8.8963981621       -4.6998216625        8.2750826500
 H        -8.0453286810       -1.0176378089        5.7144937076
 H        -6.7301458104       -1.2613022155        4.5169130683
 H        -5.2872335604        0.5039256939        5.5894289374
 H        -6.6331787949        0.5940711635        6.9662410004
 H        -8.3578174497        4.0162972917        2.9909589643
 H        -8.4094263860        2.3060009899        3.0733862562
 H        -6.9516520977        1.7242238519        1.3108063211
 H        -6.4869120590        3.3700742999        1.2029192296
 H       -12.7171866524        1.4897594118        1.5438987631
 H       -12.4831281738        1.4648634370       -0.3231580439
 H       -13.7782471879        3.5662008989        1.5509605153
 H       -14.2851925918        2.8621524140       -0.0330749338
 H       -15.2184184299        6.8431062601       -2.9871395107
 H       -15.5752080987        5.0973133694       -3.2870952439
 H       -15.1019469219        5.7379646158       -5.5131381762
 H       -13.5418987320        5.1987941976       -5.0214493472
 H       -12.4151632715        8.7555165253       -4.1660313828
 H       -11.6489049018        9.9260568262       -5.1702796810
 H       -10.3383250299        9.6707863101       -3.1495095361
 H        -9.5179764315        9.7183824407       -4.7216733539
 H        -8.9236250455        6.2680246391       -6.8730811225
 H        -8.5879155360        4.4913476586       -6.5570896337
 H        -7.3060116423        5.7090319094       -6.6117035641
 H        -7.2964050244        9.1414889510       -4.5673889408
 H        -8.0834225851        8.5069481430       -5.9879698198
 H        -6.6200006621        7.7893003774       -5.3624465175
 H        -7.3831358707        6.0719930529       -2.2322594953
 H        -7.1300308315        7.7965312385       -2.3345491771
 H        -6.3551850512        6.6217242564       -3.5831189462
 H       -12.2482449133        5.4593025514       -7.0979994252
 H       -12.2109798639        6.5791616540       -8.4211015152
 H       -13.7716778566        5.8205700545       -7.8662177374
 H       -12.7706590048        8.9165762611       -8.2543842018
 H       -13.3317801012        9.5535741001       -6.6738929369
 H       -14.3874327915        8.6416547656       -7.6649744587
 H       -15.0741183723        5.3450247612        0.6873442944
 H       -15.7329061399        4.4497944804       -0.6967836579
 H       -15.9017282791        6.2028946486       -0.7572101224
 H       -13.1803821777        7.0525916824        0.5750882412
 H       -13.9285280696        7.6217403960       -0.8460585050
 H       -12.2779046307        7.1222233921       -0.8729630753
 H       -10.7880892114        1.0860267478       -1.4797754328
 H        -9.0568316012        1.0082504287       -1.7947652538
 H        -9.7792827071        2.6165767062       -1.8256793511
 H        -9.2846723857        0.5285493257        1.9373063504
 H        -8.1824484859        0.1376864754        0.5251715334
 H        -9.8611544133       -0.3628489380        0.5010810075
 H        -7.5843020843        3.9188846039        6.6836114864
 H        -8.5146840696        4.0950607030        5.1574428189
 H        -7.0096002962        4.9843783163        5.5088997469
 H        -5.1724695394        2.7428131698        6.7399494987
 H        -4.7013123383        4.0609909486        5.6134561180
 H        -4.6401853662        2.3150338171        5.2047993119
 H        -5.5358131627       -4.2115649757        7.9325414200
 H        -4.7288667245       -4.1743835886        6.4792908252
 H        -5.7723530761       -5.5743581936        6.7414107053
 H        -7.0525144016       -4.7677958096        4.2622209895
 H        -5.3837957479       -4.1026739233        4.4281448359
 H        -6.7295670581       -3.1355523165        3.9039907918
 Na      -10.0115538373        5.2129055424       -1.7789819350
