117

 C       -12.4715095795        7.1591979232       -4.7474248499
 C       -11.4537634387        6.2141874228       -4.2353888485
 O       -10.7752598995        6.5079445221       -3.2606754976
 C       -11.1661750038        4.8112875074       -4.8072680710
 C        -9.6494002227        4.4616617679       -4.9868817533
 O        -9.0745191974        4.0497492924       -4.0225013961
 C        -9.0599571814        4.4616813279       -6.4004907548
 C        -8.0276426294        5.5318187771       -6.6924441660
 C        -8.1570059845        7.0561531886       -6.1892214939
 O        -9.1976491407        7.5791357999       -6.0864709489
 C        -6.8233533878        7.7904958319       -6.1480610185
 C        -5.9699068957        7.2395238583       -4.9856884640
 O        -5.6237556651        6.1208515028       -4.9158217599
 C        -5.2355913972        8.2050596126       -3.9165061610
 C        -5.0963954388        7.4538933604       -2.6360942841
 C        -6.5479677397        7.0807333524       -2.0110136567
 O        -7.2069042641        6.2564332906       -2.5268660436
 C        -7.3278525644        8.0566480990       -0.7854855916
 C        -7.2359918718        7.2745948082        0.4706479462
 O        -6.2373022764        6.4645186133        0.6472102632
 C        -8.2807003047        7.6843784332        1.5963221078
 C        -8.6319827717        6.3399133979        2.4306248770
 C        -8.9365767512        5.2835859425        1.3906308225
 O        -9.1717387365        5.6045512224        0.2027701691
 C        -8.8728881509        3.8284230859        1.7671014022
 C       -10.0553428199        3.5115880274        2.9192356046
 O       -10.5395031941        4.4086922467        3.4975053539
 C       -10.4330233219        2.1280474047        3.1943998941
 C       -11.6769955121        2.0800873698        4.1728566373
 C       -11.3706185585        0.8467616726        5.3457525367
 O       -10.2557337632        0.4062014637        5.3252538539
 C       -12.3677700005        0.5227648718        6.5173687999
 C       -12.7326710342       -1.0301602683        6.2514564993
 O       -12.7506238229       -1.8601215680        7.1344847580
 C       -13.1288747772       -1.3247478216        4.7777945411
 C       -13.0549449333       -2.7652022032        4.2854961732
 C       -13.6749056241       -2.8575427063        2.8654383698
 O       -13.9356617868       -1.7730781685        2.2926427758
 C       -13.7485686470       -4.2985624733        2.2511812243
 C       -12.3920637640       -4.2701719018        1.3735829147
 O       -11.4059262859       -4.5943257993        1.9489929273
 C       -12.3533295339       -3.6213816048        0.1013052538
 C       -13.4358924323       -5.5017913462        3.3112045598
 C       -15.1293114818       -4.7917974054        1.5787431485
 C       -11.4642422719        0.4738158699        7.8737907696
 C       -13.6321611146        1.2656593951        6.7751995737
 C        -9.0453102169        2.7504254492        0.6699686206
 C        -7.4394652692        3.5012138073        2.4855318027
 C        -6.3083052390        9.2639121902       -0.6726696601
 C        -8.6166525459        8.5461733460       -1.4589831246
 C        -5.8576252788        7.5422690170       -7.4402274123
 C        -7.1696210930        9.2400056427       -5.9866519881
 C       -11.5859604203        3.8149836913       -3.7471725346
 C       -12.1607772311        4.5263839181       -6.0171240497
 H       -11.8496474302        8.0943753533       -5.0732622460
 H       -13.0964618976        7.4216042264       -3.9025172246
 H       -12.9759374432        6.8901976152       -5.5754380106
 H        -9.8942861240        4.3304787034       -6.9828436703
 H        -8.5139722066        3.4055805049       -6.4896949151
 H        -7.7393411004        5.4854223014       -7.7649537836
 H        -7.1236014319        5.1399926771       -6.2270180167
 H        -5.6650806538        9.2240752335       -3.8547425044
 H        -4.2011239304        8.2515618986       -4.3624515568
 H        -4.5084130368        8.0323035046       -1.9236626381
 H        -4.6468176773        6.5001587634       -2.8585852279
 H        -9.1741871089        8.0739062510        1.1679898909
 H        -7.7180341388        8.4054419138        2.3360777977
 H        -9.6155047643        6.4511511412        3.0993815487
 H        -8.0248159308        6.0466294384        3.3055860707
 H        -9.5412399796        1.6497009257        3.6850073724
 H       -10.4477416688        1.5069312947        2.3009635586
 H       -12.6333619843        1.8416351294        3.7993587896
 H       -11.7630437512        2.8956275765        4.8539772822
 H       -12.4357075509       -0.7276895366        4.1433217965
 H       -14.1399648220       -0.9425927935        4.4358107931
 H       -13.4698338005       -3.1982530359        5.2103104177
 H       -11.9190260643       -2.9075553885        4.0430870421
 H       -11.9232130779       -2.6156029863        0.0034114172
 H       -13.3995841724       -3.4469100395       -0.1245682967
 H       -11.8676732709       -4.4110225753       -0.4649994303
 H       -13.2405502317       -6.4600843026        2.8237288877
 H       -14.3337797807       -5.7832579607        3.7576293372
 H       -12.7210152785       -5.2769828862        4.0570648964
 H       -15.7542364158       -4.0782889981        1.0567394596
 H       -15.7408859456       -5.2083856542        2.3669282841
 H       -14.9760749240       -5.4948683370        0.7562204983
 H       -12.2399312484        0.0298685611        8.5521063210
 H       -11.4726431743        1.4990822771        8.3061061431
 H       -10.4523697847        0.0660434799        7.8976629895
 H       -14.1200905949        0.9354513450        7.6750549966
 H       -14.1997823239        1.5493929810        5.9562499448
 H       -13.4755751640        2.3324225694        7.1200374357
 H       -10.0568966125        2.5058970297        0.5017420390
 H        -8.5311374825        1.9096537841        0.9060744058
 H        -8.6276358060        2.9704506473       -0.3657521575
 H        -6.5723961819        3.4769676904        1.8126337001
 H        -7.5936967481        2.4477722696        2.7589997141
 H        -7.2214231227        4.1356837511        3.4078053618
 H        -6.7650972686        9.9251136968        0.0396803174
 H        -6.2380142913        9.6775793196       -1.6855932448
 H        -5.4374390509        8.7772876837       -0.3706023266
 H        -8.2708800976        8.7803756725       -2.3997531854
 H        -8.8349611000        9.3987465936       -0.7850587978
 H        -9.4045052637        7.8274168733       -1.3931326471
 H        -5.0024095168        8.2074318651       -7.4678862375
 H        -6.2472112306        7.7077787924       -8.4833253694
 H        -5.4104862294        6.5304723226       -7.4320148743
 H        -7.5409231934        9.4573804323       -6.9867710115
 H        -6.3375952686        9.8704419471       -5.6472318643
 H        -8.0308613609        9.3748112141       -5.1940274167
 H       -11.8295402415        2.8788349539       -4.1301639981
 H       -12.5457267162        4.0574535302       -3.3992147968
 H       -10.8780483961        3.8137352655       -3.0119618567
 H       -11.9786494667        5.2249796847       -6.7965393991
 H       -13.1142577706        4.6748095199       -5.5979010562
 H       -11.9896420928        3.5867836873       -6.4556151522
 Na       -9.2331307249        5.1071449505       -1.7620465642
