117

 C       -12.2887073433        7.1644412941       -4.7878972191
 C       -11.2962021181        6.1527704797       -4.1670362277
 O       -10.6250455742        6.4867286452       -3.1780629153
 C       -11.2659030699        4.6400519510       -4.7137918110
 C        -9.7392229153        4.3989429517       -4.9956576908
 O        -8.9728827079        4.2561896950       -4.0654440081
 C        -9.0608212202        4.4090041175       -6.4294849957
 C        -7.9177191979        5.4165694219       -6.7282069927
 C        -8.0706058034        6.9079451742       -6.4345527374
 O        -9.1537587104        7.4082880809       -6.1352767901
 C        -6.8073318093        7.9096333935       -6.1779464682
 C        -5.7813894795        7.2554906196       -5.0722912480
 O        -5.6710171395        6.0194020172       -5.0765159279
 C        -5.1821332890        8.0494413812       -3.9205407337
 C        -5.1644412733        7.2917030055       -2.5642275506
 C        -6.6511567882        7.0652090529       -2.0392260256
 O        -7.2362591674        6.0930533469       -2.4720654163
 C        -7.1647070072        8.0151701660       -1.0003972842
 C        -7.2249370868        7.2525792964        0.4168400595
 O        -6.3205890721        6.3618877135        0.6228658750
 C        -8.1484968868        7.6041855044        1.6359757687
 C        -8.5809172472        6.3478721912        2.4996159285
 C        -8.9241857803        5.2627540052        1.5188774238
 O        -9.2402792032        5.6806755732        0.3722401117
 C        -8.8703568144        3.6589435529        1.8909600288
 C       -10.0837252365        3.3902033386        2.9320340554
 O       -10.4679406401        4.4508110302        3.4482312496
 C       -10.5561821323        1.9689321557        3.1424420163
 C       -11.6704133368        1.8989400234        4.1586632161
 C       -11.3422006914        0.9642847988        5.3795498589
 O       -10.2286834457        0.3974157186        5.3099120129
 C       -12.2986051483        0.6134130616        6.5443818110
 C       -12.8044119758       -0.9323189410        6.2471214420
 O       -12.9715008632       -1.7202960729        7.0439259659
 C       -13.4178444191       -1.0395403574        4.8856094806
 C       -13.1040719807       -2.5281341448        4.3913661144
 C       -13.7382726518       -2.7801517934        3.0098643296
 O       -13.9165634504       -1.8445662281        2.2677634353
 C       -13.8064730392       -4.2827194107        2.4184141403
 C       -12.4333855790       -4.1961080840        1.4654092104
 O       -11.4359274288       -4.4887337955        2.0670426933
 C       -12.2998531034       -3.6828575765       -0.0685544155
 C       -13.4265977107       -5.4405844202        3.3226344253
 C       -15.0235668649       -4.5520171821        1.5933462000
 C       -11.5019334698        0.6212790430        7.8557298603
 C       -13.5026602776        1.4086135409        6.7525970614
 C        -8.9871433928        2.8769110025        0.6236062905
 C        -7.4576026931        3.4534950123        2.6585964690
 C        -6.3209553078        9.2656930936       -0.7701851039
 C        -8.6459689746        8.4636358154       -1.4965641618
 C        -5.9659209399        7.6216851748       -7.5118365110
 C        -7.2000765365        9.3795151160       -5.9175082951
 C       -11.7676459791        3.5463209691       -3.6188798031
 C       -12.0667275935        4.6290149483       -6.0958475491
 H       -11.8770521857        8.1735083541       -4.9999401321
 H       -13.0247417990        7.2144128514       -4.0467090548
 H       -12.7214877059        6.8902323498       -5.7746201553
 H        -9.8928936559        4.5820308856       -7.1064095235
 H        -8.7992743945        3.3464407162       -6.6180440567
 H        -7.8050084545        5.3196776054       -7.8566588291
 H        -6.9035340249        5.1343378787       -6.3854082191
 H        -5.6850676621        8.9719537604       -3.8070132583
 H        -4.0867837378        8.2535637738       -4.1466815588
 H        -4.4633194071        7.9489003758       -1.9816850524
 H        -4.8023447368        6.2791285496       -2.7183186754
 H        -9.1345457042        8.1628168454        1.3132578808
 H        -7.4729030831        8.1798195323        2.1865356718
 H        -9.5048032498        6.3904566506        3.0420783581
 H        -7.9809643569        6.1355950939        3.3603258085
 H        -9.6314493524        1.2942173973        3.3574784823
 H       -10.7908667746        1.5509709881        2.1131364063
 H       -12.5422458586        1.3886162679        3.8044293293
 H       -12.0204371408        2.8590752866        4.5347956868
 H       -12.9544568968       -0.2740528633        4.2263701631
 H       -14.5134476081       -0.8874175528        4.7619204145
 H       -13.6536600715       -2.9450834540        5.2566412430
 H       -11.9761837904       -2.6682747166        4.3432179377
 H       -12.0125776808       -2.6364980155        0.0700983557
 H       -13.1772916054       -3.4557101780       -0.5902359816
 H       -11.5657723642       -4.2826209602       -0.4800741557
 H       -13.4372797485       -6.4322988222        2.7011220643
 H       -14.1560290669       -5.7932247861        4.0623334908
 H       -12.4731542068       -5.2495463485        3.7693529691
 H       -15.5090444755       -3.6883421002        1.2798450686
 H       -15.7822737098       -5.0233955309        2.3194096039
 H       -14.9241486053       -5.0916986904        0.7120024444
 H       -12.0471060968        0.1175739864        8.6447771026
 H       -11.5608252773        1.7453270408        8.2314397843
 H       -10.4795898914        0.3549041417        7.7131972985
 H       -14.1524523905        1.0975323197        7.5540029903
 H       -13.9877874421        1.7379945842        5.8908194274
 H       -13.3055253282        2.4147750893        7.0521635196
 H       -10.0046802160        2.7203619735        0.2885044739
 H        -8.5043945425        1.8491141595        0.7375887866
 H        -8.4800179532        3.3043162456       -0.2431926182
 H        -6.5680557033        3.7521714160        2.2433962196
 H        -7.3899993905        2.4396151609        2.9465632285
 H        -7.7837429016        3.9842966094        3.5646008396
 H        -6.8963270633        9.5937650238        0.0867363879
 H        -6.3914726048        9.9553552144       -1.6436107080
 H        -5.3592547867        8.9184960481       -0.5034969962
 H        -8.3020433403        9.0177141626       -2.4245984090
 H        -9.0734661371        8.9874337758       -0.6337024328
 H        -9.2383411980        7.5832989431       -1.7235819604
 H        -5.0418335498        8.0725433494       -7.6424771628
 H        -6.4430874576        7.9370622913       -8.4422419001
 H        -5.6945652816        6.5362451967       -7.6131473805
 H        -7.5767732015        9.7613269772       -6.9002785786
 H        -6.3154014000        9.9291134376       -5.5295040319
 H        -7.9700637898        9.4159673671       -5.1734620457
 H       -11.7589012338        2.5597511017       -3.9733378584
 H       -12.7940469562        3.5761087907       -3.3831936707
 H       -11.1458880576        3.7549802923       -2.7857209232
 H       -11.3985979247        4.9741928816       -6.8130567980
 H       -12.9782041782        5.1933993512       -6.0906628842
 H       -12.2408909247        3.6275500889       -6.4015287101
 Na       -9.2709376291        5.0834804798       -1.8401064465
