117

 C       -11.8236386450        7.2957270813       -4.8873485841
 C       -11.3875632020        6.0432253979       -4.1285689961
 O       -10.9544813818        6.2465653280       -2.9745417132
 C       -11.1546807679        4.6356258665       -4.8927106001
 C        -9.6837763827        4.4757083591       -5.2383708450
 O        -8.9452767968        4.3704150429       -4.2740553822
 C        -9.1658368748        4.4807986037       -6.6941610967
 C        -7.8451713864        5.1660979202       -6.6390306554
 C        -7.9695146723        6.6638278173       -6.3709693786
 O        -9.0566434475        7.0691593643       -6.0917780538
 C        -6.7549811224        7.6099868602       -6.2314048316
 C        -5.7377931418        6.9670992433       -5.2205086628
 O        -5.2383888298        5.8774782620       -5.5208270200
 C        -5.3435167993        7.8549022778       -3.9728058502
 C        -5.2202432540        7.1180287120       -2.6966158474
 C        -6.6705427057        6.8872268352       -2.0579117032
 O        -7.2058504963        5.8158579175       -2.1437563580
 C        -7.1497773298        7.9787839742       -1.0964218407
 C        -7.0656727914        7.1164318439        0.3649996293
 O        -6.3911874017        6.0295691100        0.4298620509
 C        -7.9486627074        7.4796172675        1.6283003144
 C        -8.2658934886        6.2266045656        2.4394654661
 C        -8.9573189783        5.1634076257        1.5164185715
 O        -9.5163158076        5.6096877756        0.4677471394
 C        -8.8545236241        3.7475125291        1.9424118365
 C       -10.1422905493        3.3483000207        2.9682764886
 O       -10.5900660371        4.2981661951        3.5770007874
 C       -10.6699369804        2.0447374538        2.9234366573
 C       -11.7147155408        1.8668751691        3.9908923030
 C       -11.2412255795        0.8886070003        5.2223951988
 O       -10.0633570803        0.5574230164        5.3620832730
 C       -12.3038347717        0.7886431089        6.3999883174
 C       -13.2392899455       -0.5552781008        6.4119482294
 O       -13.2185058905       -1.2500649190        7.3269408770
 C       -13.8397232918       -0.9181215862        5.1022607779
 C       -13.4548546219       -2.3229055063        4.5654479258
 C       -13.8031514751       -2.5107756951        3.0145023356
 O       -14.0568646304       -1.4790404792        2.3645115854
 C       -13.6637212939       -4.0158561783        2.4446233543
 C       -12.2962706984       -3.9782404468        1.6218538151
 O       -11.2265262798       -4.2330099996        2.0630604242
 C       -12.4143393662       -3.8382426290        0.0419960971
 C       -13.7093769013       -5.0015720312        3.5983907159
 C       -14.8159111631       -4.3181293053        1.5661574550
 C       -11.6149277908        0.8078725325        7.7330140535
 C       -13.1623654284        2.1657678157        6.4393506204
 C        -8.7940928357        2.6574140363        0.8283308962
 C        -7.6908108967        3.4278940122        2.9736591698
 C        -6.2383107547        9.3505219443       -0.8842142153
 C        -8.6610588476        8.2880368561       -1.3384282137
 C        -6.0809931405        7.7080459517       -7.7081053868
 C        -7.4402766090        8.9351897123       -5.7233714637
 C       -11.3939191839        3.6552876469       -3.6796487262
 C       -12.0264824327        4.6013188584       -6.1588890957
 H       -12.0013461282        8.1237314376       -4.1256163768
 H       -12.7119031078        7.1691962245       -5.4601220249
 H       -10.9524252665        7.6278542309       -5.4923076897
 H        -9.9003669748        5.0419208153       -7.1636251719
 H        -9.1490569720        3.4365180880       -7.2220849690
 H        -7.3237683925        4.8483645186       -7.5435778723
 H        -7.2221361805        4.8074622492       -5.8580972308
 H        -6.1132929428        8.5924021828       -3.8008431138
 H        -4.4283769474        8.4716645507       -4.2329319156
 H        -4.5219848893        7.6708255829       -2.0656207895
 H        -4.8122410197        6.1532987936       -2.9549445028
 H        -8.8925393916        8.0702151397        1.5578844677
 H        -7.2087186999        8.0541531528        2.2593962918
 H        -8.8223417829        6.4578757214        3.4462390403
 H        -7.3239712026        5.8463563998        2.9319615954
 H        -9.8049052518        1.4359224638        3.0584585721
 H       -10.9732499476        1.7990874045        1.9485025199
 H       -12.6581973116        1.5415095144        3.5690397959
 H       -11.9942263330        2.8556261188        4.4070342652
 H       -13.7013086991       -0.3036410977        4.2268365569
 H       -14.9102080779       -0.8867804975        5.3612349638
 H       -14.1506541127       -2.9745411491        5.0712114566
 H       -12.3772432543       -2.3872236638        4.8330821167
 H       -13.2712614286       -3.3309490001       -0.5265510316
 H       -12.6591173726       -4.9062313050       -0.2431841689
 H       -11.3570188242       -3.7698039631       -0.2073237804
 H       -13.7597119239       -6.0468277645        3.1608621293
 H       -14.6011617475       -4.9326180517        4.1123224702
 H       -12.9188679155       -5.0248026598        4.2459895069
 H       -14.8658629516       -3.9223662156        0.5702777610
 H       -15.8416170459       -3.9546612047        1.9463292673
 H       -14.8290623893       -5.4157437540        1.5110258870
 H       -12.3358920239        0.6923267555        8.5385371992
 H       -11.0311500570        1.7260534004        8.0306480981
 H       -11.0966152258       -0.0722665159        7.6281993107
 H       -13.8253227397        2.4415321700        7.2934890827
 H       -13.9256754763        2.3990290719        5.6938701984
 H       -12.4657984399        3.0325365391        6.2054604004
 H        -9.4228791986        2.7735645581       -0.0347088721
 H        -9.0380326156        1.7019260975        1.2964477256
 H        -7.8164404581        2.6377791140        0.3015068123
 H        -6.7724148536        3.7218132283        2.4898685228
 H        -7.6814716980        2.3809354802        3.4242333498
 H        -7.9792011751        4.0755715153        3.9053282137
 H        -6.7375319583       10.0651613883       -0.2060610070
 H        -6.1406859713        9.7268938241       -1.8934987708
 H        -5.3933681178        8.9487270910       -0.4822008575
 H        -8.6229378817        8.7901259560       -2.2492046477
 H        -9.1030931960        8.7147325808       -0.4710468690
 H        -9.0638449433        7.3540667166       -1.4688977728
 H        -5.2558066338        8.3635087590       -7.8298969311
 H        -6.7330192222        7.9989399026       -8.5722257385
 H        -5.5402723415        6.7413201312       -7.8897297015
 H        -8.1352268421        9.1690745324       -6.5503365777
 H        -6.7042011421        9.7359724262       -5.8072302876
 H        -7.9775410871        8.9483050080       -4.7422525088
 H       -11.5836357055        2.6100085915       -4.0395591158
 H       -12.3829611443        3.9056313580       -3.1989432004
 H       -10.6263216497        3.7282755266       -2.9135644800
 H       -12.0305888785        5.6401042421       -6.5395282807
 H       -13.0551594385        4.2905466620       -5.8616905873
 H       -11.6682774722        3.9082056492       -6.9317883849
 Na       -9.1922663969        4.8691873879       -1.7638374232
