117

 C       -11.8094083495        7.1833008129       -4.6652491464
 C       -11.3575707883        5.8704980069       -4.0539729346
 O       -11.1342494353        5.9492227387       -2.8523230959
 C       -11.1931204030        4.5688715009       -4.9164051289
 C        -9.6186780593        4.2538075727       -4.9741930247
 O        -8.9193728685        4.1196770574       -3.9872208945
 C        -8.9771169858        4.0691505506       -6.4822288940
 C        -7.7859620241        5.0163627160       -6.8066290257
 C        -7.9736350151        6.4007836763       -6.1475711768
 O        -8.9175577032        6.8018329958       -5.4178157664
 C        -6.7840244593        7.4304865304       -6.3652183322
 C        -5.5747650527        6.9393462758       -5.4867166262
 O        -4.9310728754        5.9545817393       -5.7007177965
 C        -5.3204435251        7.7009648301       -4.1602777892
 C        -5.1121169182        6.8109170037       -2.8976632300
 C        -6.4680428322        6.6063170730       -2.2219292115
 O        -7.1483600666        5.6647162070       -2.6596731692
 C        -6.9168538431        7.6019115013       -1.1301333947
 C        -6.8836832104        6.8111547739        0.4170917798
 O        -5.9787432275        6.1217579781        0.7575559870
 C        -7.9171163355        7.2906054034        1.4075519330
 C        -8.3578029937        6.1258526013        2.3106511979
 C        -8.6767310747        4.9712932765        1.4831820656
 O        -8.8647543962        5.1917209958        0.2821889318
 C        -8.6402157605        3.3919288249        2.1072777771
 C       -10.0938365438        3.2556671356        2.7233321097
 O       -10.5905177666        4.2261414619        3.3052580443
 C       -10.8710681377        1.7633080177        2.7135787818
 C       -12.1094039831        1.8045758201        3.7220527115
 C       -11.6435047356        1.2295761988        5.0252800286
 O       -10.5628269807        0.6180722571        5.0483937479
 C       -12.4657559107        1.3149803272        6.4010457936
 C       -13.4476981300        0.0184891838        6.4047017837
 O       -13.5958603683       -0.6869237793        7.4280118899
 C       -14.2673545211       -0.4431549995        5.1228778504
 C       -13.6794135129       -1.7973381275        4.7866135774
 C       -13.8962419164       -2.0745163322        3.3388721369
 O       -13.8858545351       -1.1645480112        2.5581482378
 C       -13.8476126363       -3.5261251069        2.7396539373
 C       -12.4567511792       -3.5531370208        1.9174321317
 O       -11.4040843296       -3.4488580265        2.5873355185
 C       -12.3404560546       -3.6357604175        0.4351503697
 C       -13.7946189967       -4.6268574062        3.8952907989
 C       -14.9649142242       -3.8479126937        1.6680952761
 C       -11.5282033506        1.3165184569        7.6532457038
 C       -13.3964460275        2.5687365734        6.3017521182
 C        -8.5469698957        2.3842641387        0.8627907704
 C        -7.6605472794        3.3307612817        3.2237045250
 C        -5.9807969145        8.8459830295       -0.9759433719
 C        -8.4539455405        8.0375078393       -1.5198020616
 C        -6.2088085263        7.2785768668       -7.7804407490
 C        -7.2971108846        8.8645870368       -6.0870676048
 C       -11.8790353411        3.3537772143       -4.1450876298
 C       -12.0251864795        4.5393535386       -6.2398932675
 H       -12.7341355984        7.0553011429       -5.2104153633
 H       -11.0763907766        7.4373880878       -5.4977872731
 H       -11.8705792463        7.9742073107       -3.9501754038
 H        -9.8251154395        4.3730152753       -7.2637206229
 H        -8.6913818196        3.0333741918       -6.6259751536
 H        -7.5403445306        5.0466866080       -7.8557469637
 H        -6.9175107949        4.6667944044       -6.2737541678
 H        -6.1736204851        8.2224741215       -3.7291160833
 H        -4.5704366536        8.5320727737       -4.1622945672
 H        -4.3268372836        7.3134916150       -2.3536650467
 H        -4.6148711448        5.8921408879       -3.1178886204
 H        -8.8343610404        7.6598966845        0.8185599070
 H        -7.5849654272        8.2587830764        1.7472471199
 H        -9.1441558764        6.2423126500        3.0975104776
 H        -7.4503237675        5.7889643223        2.9876575982
 H       -10.2674031568        0.9237563109        3.0066575344
 H       -11.1900293054        1.6810946120        1.7043431170
 H       -13.0431733665        1.3836064914        3.3513980343
 H       -12.4352201514        2.8534013718        3.7749728449
 H       -14.0516710474        0.1114673387        4.2015441563
 H       -15.3539584460       -0.5117626517        5.2901074505
 H       -14.0939328861       -2.5926988918        5.4814794328
 H       -12.5639850510       -1.8436098307        5.0057947340
 H       -12.1450709466       -4.6551348442        0.0577265668
 H       -11.4810724078       -2.9035031783        0.2869507472
 H       -13.2853333346       -3.2472681218       -0.0371922502
 H       -13.8389915294       -5.5907178958        3.6322242978
 H       -14.5029543954       -4.4049849303        4.6488786977
 H       -12.9066494177       -4.5098160077        4.5002635440
 H       -14.8738779858       -3.1524319755        0.7806881994
 H       -15.9945530661       -3.8502825375        2.0313364304
 H       -14.9309016047       -4.8945359582        1.2562730261
 H       -10.6908136380        1.9371565539        7.5322519883
 H       -11.1618667465        0.3474473913        7.8541850983
 H       -12.2070203453        1.7793244796        8.4279279371
 H       -14.0735285980        3.0174937717        7.0479859972
 H       -14.2151816200        2.4608662296        5.4736274573
 H       -12.6506982797        3.3669643518        6.1342220862
 H        -9.1592727026        2.6500094216       -0.0238661922
 H        -9.0577377828        1.4762296834        1.2096945794
 H        -7.5283457533        2.1404612059        0.5953806717
 H        -6.5759982336        3.4892807740        2.7988791739
 H        -7.8448164662        2.3806441987        3.8058708330
 H        -7.8530829767        4.1400834098        3.9248496051
 H        -6.4868266664        9.4089236304       -0.2597730979
 H        -6.0479548893        9.2650722886       -1.9482317504
 H        -4.9457079166        8.5507478728       -0.6526261840
 H        -8.3761629631        8.5803067472       -2.4625384233
 H        -8.6902619044        8.7888611717       -0.8717601883
 H        -9.0655576461        7.1701195241       -1.6145055877
 H        -5.3835098420        8.0519362342       -7.7809298134
 H        -6.8686927854        7.5160810934       -8.6064986241
 H        -5.7365062906        6.3509211011       -8.1416212636
 H        -8.0583926118        9.2415938183       -6.7891433358
 H        -6.5666003756        9.6890128774       -6.0638037609
 H        -7.8272100082        8.7568891243       -5.1812297747
 H       -11.6155766635        2.4642623709       -4.7033252965
 H       -12.9061075186        3.6254873680       -3.8994452758
 H       -11.3830859581        3.1141857346       -3.1569393491
 H       -12.1096871272        5.4768871526       -6.8415579966
 H       -13.0709622345        4.2433785872       -5.9542204065
 H       -11.6364308279        3.6812697324       -6.8587232742
 Na       -9.0538429836        4.8854857541       -1.8570869342
