117

 C       -11.9444967939        7.1868665384       -4.8356550414
 C       -11.3923019620        5.8690702887       -4.0139243004
 O       -11.1868121895        5.8891401541       -2.8341212788
 C       -11.2093999333        4.5149822015       -4.9034373092
 C        -9.6422385047        4.2463842362       -5.0426208937
 O        -8.9849965772        3.8692861360       -4.0524871818
 C        -9.0669510938        4.1841099138       -6.3836014172
 C        -7.7790373633        5.0122058941       -6.5763098710
 C        -7.9156093235        6.4443602579       -6.0626186532
 O        -8.8843709145        6.5542747753       -5.3211222206
 C        -6.7924158996        7.4313057039       -6.4162767938
 C        -5.6760389764        6.8359592614       -5.3663618087
 O        -5.0453562752        5.9003051896       -5.7615408175
 C        -5.3405731045        7.7484982513       -4.2185880409
 C        -5.0638031798        6.7721482792       -2.8966769259
 C        -6.3272711835        6.5522151220       -2.1905395213
 O        -7.0339559635        5.6252906906       -2.6404182934
 C        -6.9008221265        7.5959932866       -1.1228710256
 C        -6.8494403321        6.9106098900        0.3604617734
 O        -6.0056830362        6.2003656084        0.7114287273
 C        -7.9071287255        7.3162363770        1.4348053081
 C        -8.2816042291        5.9441398412        2.2780661876
 C        -8.6401312569        4.7547006242        1.3355839768
 O        -8.8142796407        4.9973940447        0.2059934480
 C        -8.7707157151        3.3732360160        2.0093888284
 C       -10.1819058535        3.2974686404        2.6992903733
 O       -10.5614968762        4.2241050479        3.3012696613
 C       -10.9500525751        1.9854345820        2.6707966583
 C       -12.0707407080        1.9192491127        3.7466957998
 C       -11.6137267825        1.1062564554        5.0494274768
 O       -10.5938881694        0.5639570186        5.1444356254
 C       -12.6114457833        1.3805845016        6.2487018109
 C       -13.5781313124        0.1639724946        6.5015052244
 O       -13.4861962797       -0.5273757381        7.4849466817
 C       -14.3035285392       -0.3670986076        5.2186219561
 C       -13.6660910544       -1.7744896195        4.8274968071
 C       -13.8872117264       -1.9936538720        3.3099865444
 O       -13.9043095424       -0.9908557743        2.6041036775
 C       -13.8730967680       -3.4914060684        2.7510647769
 C       -12.4737181276       -3.4355892457        2.0102056191
 O       -11.5665800746       -3.3661738210        2.7645687785
 C       -12.1883182887       -3.5215397783        0.4056389676
 C       -13.7430872476       -4.5419366837        3.7687890099
 C       -15.0926123377       -3.8554089849        1.9141202967
 C       -11.7489534415        1.3780967767        7.4987844913
 C       -13.3530830301        2.7033815924        6.0608476896
 C        -8.4039183304        2.2702258739        0.9448789207
 C        -7.7374728596        3.2773615665        3.1289812324
 C        -5.9996606426        8.8038979314       -0.9910372866
 C        -8.3072904432        8.0793807544       -1.4313469651
 C        -6.2472114553        7.2395100377       -7.9216463097
 C        -7.1730473504        8.8606901625       -6.2516479061
 C       -11.8277527320        3.2604983899       -4.1559879886
 C       -11.8644963779        4.6517838369       -6.2268579894
 H       -12.6283908128        6.9052655634       -5.7343270324
 H       -11.1657871333        7.7720441839       -5.2811344656
 H       -12.4524911144        7.8025704735       -4.1822979833
 H        -9.7494058186        4.5822832743       -7.0634202839
 H        -8.8100279541        3.1390963361       -6.6560479858
 H        -7.6561686835        5.0100581346       -7.6494756063
 H        -6.8872618769        4.4627706973       -6.1424613209
 H        -6.0245513927        8.5102822336       -3.7867843867
 H        -4.4368668761        8.2898972581       -4.3901857433
 H        -4.3166126841        7.2652599953       -2.3410069668
 H        -4.5037604724        5.8762079746       -3.1522096465
 H        -8.7578572530        7.8106316370        1.1228354362
 H        -7.4052225011        8.2675513990        1.8143208842
 H        -9.1499892371        5.9303870412        2.9726000489
 H        -7.4677491798        5.7385572942        2.9849206164
 H       -10.3151351317        1.0983802030        2.7380972783
 H       -11.4185058643        2.1088374621        1.6412803961
 H       -12.9544926016        1.4722366095        3.3073749024
 H       -12.4595933865        2.8744980198        3.8497954638
 H       -14.1824110580        0.1512965035        4.2309784491
 H       -15.3517183130       -0.4145766547        5.5884466199
 H       -14.0464175650       -2.6614855374        5.4575294725
 H       -12.5469545505       -1.7781703108        5.0939656920
 H       -12.0818103808       -4.6079220572        0.3447424797
 H       -11.2755184846       -2.9257392278        0.1792229795
 H       -13.1411286822       -3.3562824561       -0.1864497213
 H       -13.3595136746       -5.4669858863        3.3523973755
 H       -14.7185849808       -4.8459583925        4.1953573213
 H       -13.1950908736       -4.3159292903        4.6651573665
 H       -15.1208307557       -3.1618046178        1.0280338309
 H       -15.9648430504       -3.8564616074        2.4918341740
 H       -15.1436686574       -4.8870355040        1.4692907834
 H       -10.6806462955        1.5650672531        7.2309871754
 H       -11.8001556484        0.3819256838        7.8713450632
 H       -12.0672767899        2.1865667738        8.2027119473
 H       -13.8217158647        2.8528258139        7.0574718190
 H       -14.2724162086        2.8563402091        5.4823075755
 H       -12.6850015568        3.5365305811        6.1661440350
 H        -8.6248173844        2.4608306255       -0.0979457464
 H        -8.7629373555        1.3514483580        1.2010412883
 H        -7.3208745602        2.1651875858        1.1639949701
 H        -6.7340302189        3.4685794256        2.7462195586
 H        -7.9234178051        2.2929796327        3.6070914653
 H        -7.9614412161        4.0703221741        3.9213084032
 H        -6.4644286155        9.5052829431       -0.3154635814
 H        -5.8282894571        9.1520126395       -1.9834136177
 H        -5.1099304174        8.3023372360       -0.6050920470
 H        -8.1588603805        8.6375338989       -2.3097711300
 H        -8.5740916547        8.9231719736       -0.7557305780
 H        -8.9318093690        7.2242420082       -1.6772550712
 H        -5.5108780154        8.1077938739       -8.1079304887
 H        -7.0449367160        7.3574550752       -8.6641945410
 H        -5.7847124272        6.3429613063       -8.2835396846
 H        -7.6381711308        9.3134899000       -7.1198124196
 H        -6.2778745859        9.4932312476       -6.1276409467
 H        -7.9404769536        9.0086872092       -5.3859580872
 H       -11.2869857326        2.4039735855       -4.4748495170
 H       -12.8706178548        3.3176314315       -4.2544094691
 H       -11.6537910869        3.2286147606       -3.0962836372
 H       -11.4207840496        5.5022381718       -6.7917246894
 H       -12.9472765281        4.8251674234       -6.1729562348
 H       -11.6260995411        3.7238069409       -6.7728305250
 Na       -8.9436756835        4.7936815483       -1.7653643446
