117

 C       -12.1940769038        6.9092284336       -4.4347748553
 C       -11.2694316733        5.6381992092       -4.1067747994
 O       -10.5920197593        5.6585847675       -3.1167289013
 C       -11.3760326255        4.3106432413       -4.9956430702
 C        -9.8663295320        3.8448732965       -5.2597872341
 O        -9.2680169476        3.3182408280       -4.3196270876
 C        -9.0848691873        4.1592806868       -6.5647321600
 C        -7.7028081134        4.6732167685       -6.1925110834
 C        -7.7923249076        6.2033888505       -5.8503072808
 O        -8.7927114776        6.5009445814       -5.2698309667
 C        -6.6834875947        7.1515826884       -6.3793389291
 C        -5.5218416601        6.7762246630       -5.3940115036
 O        -4.9086443324        5.7375591157       -5.6185414367
 C        -5.1633417501        7.7578766380       -4.2536202312
 C        -4.8481958608        6.8996000208       -2.9189322258
 C        -6.1413228673        6.6867807873       -2.2647705056
 O        -6.7764712701        5.6267558720       -2.4399961871
 C        -6.6755828628        7.7445044877       -1.1965216017
 C        -6.6664371230        6.9469427036        0.2173059991
 O        -5.7248458135        6.2098700221        0.4544629268
 C        -7.8982010014        6.8287828205        1.0762711927
 C        -7.8775500464        5.5824691895        2.0883317173
 C        -8.4361168351        4.3782703483        1.3623084911
 O        -8.6022796909        4.4289263465        0.1913712144
 C        -8.7125051133        3.0503524547        2.0923838981
 C       -10.2716542248        3.1558008594        2.6272697032
 O       -10.6089649646        4.2312772168        3.0920424949
 C       -11.0106773262        1.9439433966        2.5250471236
 C       -12.2570333435        2.0529570727        3.4517027436
 C       -11.9817813297        1.3907290755        4.8834947150
 O       -11.0529664265        0.6920729178        4.9890200347
 C       -12.8109448364        1.8662118131        6.1263100063
 C       -13.6095936387        0.5323792285        6.6304218540
 O       -13.5554638841        0.1746951327        7.7468942477
 C       -14.3958317157       -0.1442945941        5.4428992954
 C       -13.9219247004       -1.5614950163        5.0618585385
 C       -14.2073336453       -1.6807870732        3.5261842375
 O       -14.5398341565       -0.6465470467        2.9085794224
 C       -13.8683965588       -3.1203824462        2.8857856237
 C       -12.3544235959       -3.1052699275        2.2123032324
 O       -11.3952737185       -2.9160792785        2.8814895331
 C       -12.2478120874       -3.2006472682        0.6773484169
 C       -13.9688877134       -4.1839917909        4.0600601997
 C       -14.8360811630       -3.5979130133        1.7790570539
 C       -11.6746622139        2.2752811551        7.3234700666
 C       -13.8625697527        2.8970159322        5.9660047666
 C        -8.4244273049        1.8384933470        1.2000593409
 C        -7.5582565065        2.8723277824        3.3353635359
 C        -5.7359725122        8.9839654031       -0.9633578061
 C        -8.0603850996        8.2292270875       -1.5773926705
 C        -6.2403655753        6.8590613087       -7.8338762969
 C        -7.2694808470        8.5949636368       -6.3175192478
 C       -12.0513259924        3.3458924634       -4.0951242803
 C       -12.0805891824        4.5607435344       -6.3636914647
 H       -12.7385218591        6.6494662450       -5.3163697825
 H       -11.5899508568        7.7716782911       -4.5435976252
 H       -12.9310179536        7.1861886203       -3.5785336679
 H        -9.4724912806        4.8807473203       -7.1594814689
 H        -8.9362096028        3.1758908323       -7.0752533407
 H        -7.0963725547        4.3863542334       -7.0318042480
 H        -7.2937547961        4.1253025389       -5.3276840652
 H        -5.8909574678        8.6039782482       -4.0245105124
 H        -4.2159699403        8.2093393576       -4.5365980084
 H        -4.2308286744        7.3483957055       -2.1678240853
 H        -4.1715670394        6.1737617504       -3.3298212781
 H        -8.7954950347        6.9612025908        0.5572743247
 H        -8.0110810613        7.7330679569        1.8238260582
 H        -8.6576297804        5.9025605901        2.8909548792
 H        -6.8918259212        5.4630268711        2.5703434394
 H       -10.3568507996        1.3492930065        3.0974351916
 H       -11.1930621368        1.5807196654        1.5336340452
 H       -13.1844526108        1.7944329797        2.9164893808
 H       -12.5204546531        3.0526538101        3.5377319940
 H       -14.1548266723        0.5587691631        4.6467152288
 H       -15.4744393671       -0.2156762017        5.5429858308
 H       -14.3416232647       -2.2646074635        5.8220891775
 H       -12.8795910128       -1.9569702137        5.1735963197
 H       -12.8748766795       -4.0461902302        0.3657673054
 H       -11.1685717788       -3.2931362121        0.6384824786
 H       -12.8087680423       -2.3980885964        0.1745606592
 H       -14.4341742655       -5.0786571724        3.6281277061
 H       -14.6801343512       -4.0149480229        4.7740428168
 H       -13.0947323721       -4.4432297807        4.4724537463
 H       -14.9807463171       -2.8680209454        0.9367020792
 H       -15.8367944878       -3.8275977431        2.1740282937
 H       -14.3771596121       -4.4502656980        1.2046587770
 H       -10.9322160373        1.4707616301        7.1626978863
 H       -12.1084062595        2.2852218880        8.2984584141
 H       -11.0874018724        3.1373837171        7.1229560983
 H       -14.3453372077        3.1561070219        6.9654152281
 H       -14.5726917509        2.7985008825        5.1233370252
 H       -13.3433298369        3.8889224541        5.7153243222
 H        -9.3093184143        1.7559513924        0.6275486637
 H        -8.1734799499        0.9718669746        1.8047749662
 H        -7.5576096384        1.9804906827        0.5292677399
 H        -6.5217045510        2.6897141679        3.0613207878
 H        -7.9382583777        2.0171671814        3.9726529049
 H        -7.5463755474        3.8649358023        3.9435516816
 H        -6.1742957217        9.4760339274       -0.0722951145
 H        -5.6943931189        9.7339828972       -1.7496650987
 H        -4.8633878983        8.4582385875       -0.7429593137
 H        -8.0261317876        8.7992900454       -2.4301710141
 H        -8.4153906912        8.8301474828       -0.6560893225
 H        -8.6879619511        7.3954291707       -1.7778707391
 H        -5.6979117538        7.6638583936       -8.3285905330
 H        -7.1032635573        6.5728976628       -8.4759391276
 H        -5.6779308217        5.9239564429       -7.8631549406
 H        -8.1813969460        8.4738627207       -6.8414818481
 H        -6.6946922224        9.3688039757       -6.7633548062
 H        -7.4569025596        9.0640298515       -5.2943691633
 H       -12.5948122920        2.5037633742       -4.6911089676
 H       -12.8099134402        3.7998024304       -3.3598130395
 H       -11.2255693104        2.8381877623       -3.5156372150
 H       -11.7887580643        5.5256542874       -6.8706759005
 H       -13.1842571572        4.6163111359       -6.2763422992
 H       -11.7592096745        3.8037511002       -7.1179775194
 Na       -8.9033279937        4.5813901859       -2.0105871629
