117

 C       -12.1645331548        6.8028354035       -4.3681807714
 C       -11.3032207842        5.5659049916       -4.0251313865
 O       -10.4009316715        5.7224693634       -3.2184688421
 C       -11.3715269606        4.2639250997       -4.9702498399
 C        -9.9352278270        3.6995460767       -5.0923497326
 O        -9.3172855929        3.2663690567       -4.1682807652
 C        -9.2440666815        3.8924330195       -6.4514772054
 C        -7.7944635672        4.5930290205       -6.3603693095
 C        -7.8415934210        6.0191282124       -5.9178200610
 O        -8.8654728496        6.5177186482       -5.3636984762
 C        -6.6490039452        6.9484439939       -6.2919154846
 C        -5.3955188956        6.7279192639       -5.3263632954
 O        -4.6349825583        5.8664808042       -5.5809134288
 C        -4.9954339826        7.7742635891       -4.2244109340
 C        -4.7394412087        6.9905422311       -2.9626657404
 C        -6.1260768632        6.6200042396       -2.2586541009
 O        -6.8521221406        5.8694352604       -2.8154004018
 C        -6.5958721574        7.6488541783       -1.1675830688
 C        -6.5797668338        6.9195173999        0.1565305962
 O        -5.6049472912        6.3190082026        0.4804609035
 C        -7.8141383348        6.8032188430        1.0748929720
 C        -7.9032540521        5.4466191071        1.9685533845
 C        -8.3597651487        4.0981586654        1.2844741967
 O        -8.5396351128        4.0018985399        0.0664401560
 C        -8.6492968256        2.8419265858        2.2286552282
 C       -10.0960574084        3.1542635864        2.5249237489
 O       -10.3771883634        4.2322936492        3.0577562333
 C       -11.1573090889        1.8792526326        2.5129366375
 C       -12.4452527436        2.0842616719        3.4275893941
 C       -12.1121172535        1.5514219833        4.8391973077
 O       -11.1499594791        0.7450540371        5.0658987728
 C       -12.8820060303        2.0292665154        6.1148594802
 C       -13.7247701493        0.8142474122        6.6632614546
 O       -13.4170977394        0.4395214951        7.7677630638
 C       -14.6260151466       -0.0882882766        5.6731370295
 C       -13.8216751533       -1.2708518256        5.0685490124
 C       -14.2038677671       -1.6168526947        3.5271524682
 O       -14.8085485852       -0.8706282053        2.8265705444
 C       -13.9511079105       -3.0805887117        2.9358747840
 C       -12.4907872342       -2.9357878296        2.3837790822
 O       -11.6164497675       -2.7061746762        3.2038881636
 C       -12.1495300660       -2.9713513296        0.8468861654
 C       -13.7094447681       -4.2440804477        3.8788240147
 C       -15.0643199022       -3.2411597243        1.9368751738
 C       -11.9001094378        2.5219145309        7.2524519457
 C       -13.8283041036        3.3167060005        5.8384170848
 C        -8.5303230800        1.5543739008        1.2514073366
 C        -7.7318681529        2.8667152253        3.4343234833
 C        -5.7544975281        8.8141066959       -0.9692705490
 C        -8.0038109171        8.1272787116       -1.5701328244
 C        -6.1954099729        6.7096458859       -7.7735909142
 C        -7.1616891613        8.3968420632       -6.2287248163
 C       -12.3262586331        3.1991820565       -4.1953825150
 C       -12.1857279139        4.4395783017       -6.3091917479
 H       -12.9924872042        6.5890278994       -5.1164130316
 H       -11.4474266483        7.5723432316       -4.7648075096
 H       -12.5783632659        7.2308087997       -3.5725207811
 H        -9.8517863429        4.6359474530       -7.0878957509
 H        -9.2431862891        2.8981792571       -6.9071310371
 H        -7.1795880439        4.5809756127       -7.2951203163
 H        -7.1970706757        3.9997055119       -5.6344627217
 H        -5.6799301530        8.5178488964       -3.9467134654
 H        -4.0317090033        8.2209654231       -4.5118549100
 H        -3.9131219411        7.4182645188       -2.3685708668
 H        -4.2897334260        6.0242902613       -3.2913758390
 H        -8.5646377752        6.5722044621        0.2396072245
 H        -8.1980806254        7.6511977629        1.5058907873
 H        -8.4547427977        5.6825843700        2.8123792330
 H        -6.8462015768        5.1507943965        2.1475128239
 H       -10.7488235195        0.8884432611        2.9545794117
 H       -11.6167449377        1.7232996842        1.4847327061
 H       -13.2759262106        1.6208709386        2.9394329386
 H       -12.8001476522        3.1659865624        3.3928398754
 H       -14.8918154453        0.6214294576        4.8245719796
 H       -15.5935623696       -0.3956800006        6.2022283460
 H       -13.7974396983       -2.1803456448        5.6728213299
 H       -12.7655249970       -1.0705680841        5.2072879506
 H       -12.9989796962       -3.3540835669        0.3408226938
 H       -11.1466935886       -3.4086788913        0.7776839580
 H       -12.2748525423       -1.9102193909        0.6684300573
 H       -12.9867456117       -5.0326821629        3.6240070309
 H       -14.7007925092       -4.8174296285        4.1021335750
 H       -13.2241207714       -3.7436151384        4.8198466978
 H       -14.9606609652       -2.3456962716        1.2981586175
 H       -15.9940427980       -2.9804146468        2.3959702620
 H       -15.1612025812       -4.1250414057        1.2975786829
 H       -11.3723028630        1.8743271578        7.9124629179
 H       -12.4186444887        3.4084073853        7.6542083039
 H       -11.0419403496        3.0403338056        6.6644553844
 H       -14.3620919806        3.6082666996        6.6963085695
 H       -14.5237463078        2.9929653733        5.0288476973
 H       -13.4835338397        4.1663399337        5.3074745232
 H        -9.0630680535        1.8640638131        0.2807239571
 H        -8.9070910301        0.7095284048        1.7804691792
 H        -7.4588674836        1.4061118556        1.0588309961
 H        -6.7077323049        2.5940330770        3.0693359498
 H        -8.0132403513        2.1185439449        4.1389656676
 H        -7.7225263679        3.8100617070        3.9342868091
 H        -6.4751966502        9.4810827933       -0.5729952867
 H        -5.5226035018        9.2461721163       -1.9284418964
 H        -4.9219723923        8.4576508315       -0.2995471847
 H        -7.8502164450        8.9099630637       -2.4020399494
 H        -8.4040350256        8.5271326408       -0.6704968458
 H        -8.6438429463        7.2661336913       -1.9387926661
 H        -5.4083823876        7.4147468347       -8.1719813084
 H        -7.0648785476        6.7952884081       -8.4379157893
 H        -5.8193087887        5.6997735039       -7.9584205707
 H        -8.0216958714        8.5942897297       -6.9140496994
 H        -6.4282567879        9.2209126143       -6.1557199260
 H        -7.5088844213        8.4894265832       -5.2376099475
 H       -13.0733931357        2.7415576388       -4.7669808280
 H       -12.9141941684        3.7291719817       -3.5094181593
 H       -11.7252305330        2.5231240417       -3.6310103878
 H       -11.8880860560        5.3126035117       -6.8768209756
 H       -13.2699774176        4.5666119524       -6.1242554318
 H       -12.0389877450        3.6128959500       -7.0139940202
 Na       -8.4749529534        4.6377731521       -2.2568519889
