117

 C       -12.0425999726        6.4892935654       -4.1047455339
 C       -10.9884403768        5.5348692268       -3.9028771475
 O       -10.2569878315        5.6331497201       -2.9349787031
 C       -11.0514711384        4.1560513765       -4.6714182581
 C        -9.7191593041        3.6764952342       -4.8381774659
 O        -8.9569383780        3.5365566777       -3.8279026880
 C        -9.1053368819        3.5775759669       -6.2264409026
 C        -7.6085116577        4.2001126149       -6.1185130842
 C        -7.7491622253        5.7860540002       -5.8589947612
 O        -8.6572797448        6.1796307931       -5.2308179769
 C        -6.5643403675        6.6744841378       -6.4140172160
 C        -5.3203696173        6.2357908402       -5.5101592301
 O        -5.0745867230        5.0681107355       -5.2999425630
 C        -4.5526071542        7.3013943720       -4.6996524157
 C        -4.6505816555        7.2883492264       -3.1759030423
 C        -6.0279764349        6.8599616883       -2.6610188757
 O        -6.5729256398        5.7557507314       -2.9613821267
 C        -6.5761902523        7.7123222481       -1.3370963729
 C        -6.6694460648        6.5855942615       -0.2283519130
 O        -5.6085670430        6.1487030509        0.1516879054
 C        -7.9622727692        5.9191995008        0.2988208195
 C        -7.8436754907        4.7864896239        1.3755308797
 C        -8.2409964331        3.3562505689        0.7553644418
 O        -8.3901053363        2.9572262693       -0.4305656014
 C        -8.7373865207        2.3879248531        1.9013071666
 C       -10.0636302555        2.9113856353        2.3610150879
 O       -10.1850586455        4.0611612087        2.8644988868
 C       -11.2907424343        1.8997123075        2.4263624132
 C       -12.5425401579        2.3675886433        3.2796800687
 C       -12.1911144582        2.3044933151        4.7437315607
 O       -11.0210850055        1.9389363516        5.0568478329
 C       -13.2042171264        2.6478001408        5.9023523473
 C       -13.8240999822        1.4180855437        6.5680762472
 O       -13.6336752753        1.0209049169        7.7065667086
 C       -14.8589196008        0.5998543551        5.8465924643
 C       -14.1178677847       -0.6641954512        5.2890521316
 C       -14.7438389178       -1.2869971458        3.8842281172
 O       -15.6270647557       -0.6766277275        3.3151094152
 C       -14.1086493214       -2.6123154826        3.2354048472
 C       -12.5428706367       -2.3297973711        2.8959628629
 O       -11.7187794036       -2.0557981738        3.8206238940
 C       -12.2998409124       -2.1431905300        1.3075353609
 C       -13.8063379128       -3.9538473025        4.0130685780
 C       -14.9353557395       -3.1394366907        2.0328259457
 C       -12.2638215123        3.3196650711        6.9890268532
 C       -14.2611959139        3.6754393013        5.4314917580
 C        -8.6933883866        0.8831947095        1.4690947721
 C        -7.6716309201        2.2618497661        3.0091070954
 C        -5.7556822846        8.9584483325       -0.8243659757
 C        -8.0006388372        8.2070080931       -1.7318627951
 C        -6.2902163468        6.4331301190       -7.9814652729
 C        -6.8336708364        8.1103335626       -6.1670555224
 C       -11.8462211380        3.0767745177       -3.7725869467
 C       -11.8395038207        4.3733641909       -5.9867421884
 H       -13.0554898719        6.0362493812       -4.3553918955
 H       -11.7203246428        7.1116191481       -5.0288290574
 H       -12.1407278548        7.0689412839       -3.2886158409
 H        -9.5195047703        4.1475547075       -7.1336939671
 H        -9.0144628783        2.6284565616       -6.6834143595
 H        -7.1940232755        3.9239097626       -7.0974511670
 H        -6.9795024160        3.7098272288       -5.3989059138
 H        -4.8382782313        8.2383168905       -5.2064329725
 H        -3.4762404883        7.1438871134       -4.9303187073
 H        -4.5532720783        8.2747828802       -2.6755047681
 H        -3.9933239857        6.4981615063       -2.7710061186
 H        -8.3465076800        5.5577166925       -0.6236785538
 H        -8.5593457910        6.7748708585        0.7808530817
 H        -8.5532764951        5.1834451831        2.2376434683
 H        -6.7288181446        4.7814712959        1.5999451884
 H       -10.9875176713        0.9876743644        2.8590214611
 H       -11.8417812585        1.9024314033        1.4804213316
 H       -13.4343770838        1.6776169015        3.0429808868
 H       -12.6501047671        3.4175048940        2.8566060939
 H       -15.3598565918        1.1961264556        5.1272423589
 H       -15.6765629759        0.2456341355        6.4056906088
 H       -14.1383493659       -1.4517760015        6.0286764578
 H       -13.0951407575       -0.4446774126        5.0490370016
 H       -11.5611582792       -2.9285935427        1.1339018552
 H       -11.7819635381       -1.2357168296        1.2100127025
 H       -13.2501248654       -2.1520712030        0.8557622483
 H       -14.2269932773       -4.7887845740        3.5761653877
 H       -13.9318467716       -3.8021576083        5.1034927917
 H       -12.6820531923       -4.2647026551        3.9174107982
 H       -15.0869139131       -2.3844050716        1.2942378998
 H       -15.9610723828       -3.3553993816        2.5201929702
 H       -14.6900048355       -4.1011826589        1.6988662827
 H       -11.2684980310        2.8834950663        6.9445831623
 H       -12.5816709757        3.2132446313        8.1002458871
 H       -12.2443348297        4.3624267454        6.8095656825
 H       -14.9279518150        3.9632464038        6.2619914216
 H       -14.9885324794        3.4843059370        4.6843036933
 H       -13.6298296713        4.6070361726        5.2356678230
 H        -9.4965808383        0.6894041666        0.6930836864
 H        -9.0017536465        0.3841774636        2.4590752486
 H        -7.7377673920        0.7887398884        0.9641171982
 H        -6.8172652222        1.7323424472        2.6187503144
 H        -8.0161136595        1.7456561719        3.8652895451
 H        -7.3835841733        3.1576724561        3.4238475134
 H        -6.3433928515        9.3562902287        0.0310904946
 H        -5.4798844839        9.5314850026       -1.7050866644
 H        -5.0196813693        8.3526529190       -0.3666669987
 H        -8.0346563793        9.1476636849       -2.3726846077
 H        -8.4941342015        8.4265725989       -0.7842426243
 H        -8.5801992337        7.3517002121       -2.1771350723
 H        -5.5546207630        7.0756362407       -8.3254597189
 H        -7.1859511108        6.7141392029       -8.5762754600
 H        -5.8547268315        5.4246335477       -8.1490104619
 H        -7.7072375673        8.3949066255       -6.7783736070
 H        -6.0634118577        8.8259398849       -6.5455234795
 H        -7.1691176013        8.3293879784       -5.1936183585
 H       -12.3350803884        2.4031244110       -4.4057787311
 H       -12.6285184428        3.5477541694       -3.2182241808
 H       -11.1697000578        2.6652011764       -3.0767341010
 H       -11.6412157582        5.2890374831       -6.5110165506
 H       -12.8715712428        4.3785291208       -5.7018232979
 H       -11.7891628884        3.6193057143       -6.7467075802
 Na       -8.4722858976        4.5230710256       -2.0724383150
