117

 C       -11.9648719295        6.5078933995       -4.1183457910
 C       -10.9885305197        5.4114100487       -3.7046429882
 O       -10.0821197780        5.6168183590       -2.9328074009
 C       -11.0464649959        4.1149593151       -4.6326348004
 C        -9.5474077353        3.7629651974       -4.7666582845
 O        -8.8856988855        3.5451317209       -3.7926682850
 C        -8.9559327060        3.4449908293       -6.1500526269
 C        -7.5989734762        4.2414961955       -6.2808402619
 C        -7.7579713849        5.7037443388       -5.9674615621
 O        -8.6387766960        6.1086561572       -5.1620134958
 C        -6.5872232320        6.6070316436       -6.3313277676
 C        -5.2669249823        6.1259391491       -5.3759467325
 O        -5.1047475333        4.9638493959       -5.2742153742
 C        -4.5083397590        7.1995863717       -4.7006003106
 C        -4.6694715639        7.1840481365       -3.1135447600
 C        -6.1056622835        6.7744353753       -2.6224431550
 O        -6.5897800152        5.7551957381       -2.9496199645
 C        -6.6505451095        7.6720409946       -1.3870552683
 C        -6.6673459486        6.4719422540       -0.3742878472
 O        -5.6367064405        6.0575136839        0.0098635649
 C        -8.1124696156        5.9893242114        0.2051551661
 C        -7.8240684633        4.6461801390        1.0971316434
 C        -8.3244835491        3.3023512446        0.8010435658
 O        -8.4673030312        2.9700764974       -0.3740235264
 C        -8.6676524292        2.2616850483        1.9292799719
 C       -10.0666855772        2.8336173565        2.5752448137
 O       -10.1624152138        4.0040994692        2.6998312082
 C       -11.3353724338        1.9255799063        2.4359383464
 C       -12.5415706547        2.4217870987        3.2708663620
 C       -12.1589761110        2.4263391017        4.7680275258
 O       -10.9517914931        2.1647564416        5.1302626578
 C       -13.1519961033        2.8414759679        5.8032830470
 C       -13.9460705446        1.4779039657        6.5906906685
 O       -13.4978618667        1.2001208117        7.6073863164
 C       -14.9803696636        0.6066815483        5.7194114072
 C       -14.1956313015       -0.6480066176        5.2514784444
 C       -14.7726858404       -1.3812111259        4.0493653265
 O       -15.5745483116       -0.8236253443        3.3998687468
 C       -14.0806979059       -2.6018686490        3.3414419045
 C       -12.6778327681       -2.0783936208        2.8580066958
 O       -11.8670119287       -1.9627987910        3.7262828295
 C       -12.2057695325       -1.9896051294        1.4332107805
 C       -13.8536225316       -3.9219781569        4.2287784534
 C       -14.9809694886       -2.9295005705        2.0821593503
 C       -12.4168550929        3.3998097904        7.0394436536
 C       -14.1966391515        3.9584177868        5.3152172844
 C        -8.9246472718        0.7335696206        1.1152318961
 C        -7.6073222899        2.2835921214        3.0281176219
 C        -5.7009802272        8.8332502534       -0.9224597746
 C        -8.0860691434        8.2714376378       -1.7227268856
 C        -6.3076334745        6.3236465968       -7.8522192531
 C        -6.8589279042        8.1938077073       -6.2687339897
 C       -11.6950873248        3.0566056536       -3.7054177046
 C       -11.9227858065        4.3251671184       -5.9208726076
 H       -12.9651381916        6.1700269582       -4.4084986443
 H       -11.6033478921        7.2133061548       -4.8754535724
 H       -12.2214556153        7.0052655605       -3.1715075149
 H        -9.5078736613        3.6245421879       -7.0676086074
 H        -8.7248235196        2.4478513345       -6.2317128658
 H        -7.1670343508        4.0504895587       -7.2833633617
 H        -6.8879747800        3.8668065841       -5.5942227314
 H        -4.5227022403        8.0943095012       -5.3082255810
 H        -3.4402976862        6.7718397506       -4.8271840483
 H        -4.5314886378        8.1286947648       -2.6431216525
 H        -4.0452750614        6.3741238164       -2.7425456040
 H        -8.7812602238        5.9444267502       -0.6044202353
 H        -8.3332349821        6.7540556419        0.9282211227
 H        -8.1320652724        5.0361195215        2.0884999728
 H        -6.6789822424        4.4924885403        0.9550152278
 H       -11.1592725943        0.9546725444        2.8152737596
 H       -11.7267589910        1.9772172346        1.5060021245
 H       -13.2635542224        1.6870946150        3.1026902813
 H       -12.7831364397        3.4421761302        2.8788748388
 H       -15.2246176817        1.1653105340        4.8647079071
 H       -15.9109229224        0.2981307883        6.1324435987
 H       -14.1000310307       -1.4432880808        6.0055367330
 H       -13.2058352053       -0.3259616707        4.8797723118
 H       -11.2589426716       -2.4633677035        1.6487124187
 H       -11.9598110631       -0.9261681829        1.2402613525
 H       -12.9882822254       -2.3535239750        0.7962400649
 H       -14.6706128535       -4.5534791866        4.0396809391
 H       -13.5891231171       -3.7057374687        5.2279098156
 H       -13.0271089208       -4.4644132906        3.8450466733
 H       -15.0672710682       -1.9605318228        1.5827987199
 H       -15.9625530803       -3.2644273065        2.4443724873
 H       -14.6747489239       -3.7523072113        1.4371362628
 H       -11.7157538944        2.8180443954        7.5064482836
 H       -13.1318560895        3.6685617950        7.7683086640
 H       -12.0469230416        4.4034283408        6.6797882065
 H       -14.9338083686        4.3714208546        6.0393847983
 H       -14.9158991546        3.4388760976        4.5632901564
 H       -13.6919242282        4.9000585795        4.9435740934
 H        -9.5850168156        0.8403756838        0.1678860836
 H        -9.3933246336        0.1156040363        1.7784045148
 H        -7.9385781204        0.5393160747        0.7260059862
 H        -6.5967241689        1.8986919647        2.7777963579
 H        -7.9825180663        1.6740501981        3.8128455759
 H        -7.4787305120        3.2498179696        3.4806284368
 H        -6.2155386774        9.0815427933       -0.0359645353
 H        -5.6438341060        9.4918999770       -1.7372796517
 H        -4.8028841956        8.2963863608       -0.5677334043
 H        -7.9376952210        8.8650868608       -2.6869971455
 H        -8.4985333187        8.8518780930       -0.9767724043
 H        -8.7516850481        7.4482032451       -1.9536704918
 H        -5.5434712164        7.0293499461       -8.3199021948
 H        -7.2166451693        6.6039358041       -8.3321035129
 H        -5.9825048204        5.3089435342       -8.0609293266
 H        -7.7721873923        8.6475437065       -6.6721005972
 H        -6.0586855379        8.8118998648       -6.6771756971
 H        -7.0402883431        8.3692503291       -5.2658073886
 H       -12.4385781644        2.4378579143       -4.2538725619
 H       -12.1820316333        3.6066422443       -2.8774399283
 H       -10.8726304199        2.4389612606       -3.2218238612
 H       -11.4063988253        4.9911856606       -6.5864630760
 H       -12.8677061485        4.8096513490       -5.7067956664
 H       -12.0966536751        3.4763424817       -6.5600361316
 Na       -8.3827608239        4.4750968902       -2.0152647862
