117

 C       -11.1948272272        6.3012613593       -4.4283041598
 C       -10.5593143809        5.0703110053       -3.6554116283
 O       -10.0763683972        5.3499029812       -2.5528236520
 C       -10.8115117326        3.7455410059       -4.3234870402
 C        -9.3954253138        3.4047014987       -5.0093351429
 O        -8.5328878079        3.2081421819       -4.1881350612
 C        -9.0842934707        3.3474108944       -6.5092132109
 C        -7.6564236180        3.8830852142       -6.6641938386
 C        -7.6982906427        5.3194843146       -6.1978923444
 O        -8.6966708869        5.7443832430       -5.7330014800
 C        -6.4822634769        6.2037695479       -6.3835472152
 C        -5.2792584617        5.7074901069       -5.4760076396
 O        -5.0883039952        4.5016883653       -5.3793001983
 C        -4.4495321523        6.7693655922       -4.7433654122
 C        -4.6317583571        6.9253609906       -3.1858349611
 C        -6.1079121037        6.6267396784       -2.6700466160
 O        -6.7994169243        5.9262965236       -3.4164948403
 C        -6.4429265324        7.1955846565       -1.3109210176
 C        -6.4682192220        5.9000290922       -0.4315292904
 O        -5.6331295010        5.0390792856       -0.4747670828
 C        -7.5533776783        5.8325564158        0.8515944891
 C        -7.4089403888        4.4285893685        1.4727996286
 C        -8.1997082535        3.3469400375        0.7367024818
 O        -8.1776791469        3.2932946801       -0.4849192355
 C        -8.8819983107        2.2171173440        1.5456167441
 C       -10.1611087218        2.8623236271        2.2773424412
 O       -10.2139674643        4.0347520794        2.2510071657
 C       -11.2593731034        1.9856593451        2.8474491538
 C       -12.5776498382        2.5250959963        3.4541460865
 C       -12.3674805089        3.2837768074        4.7877636647
 O       -11.2445720493        3.3919882449        5.3036115332
 C       -13.6549119557        3.5937416492        5.9510093145
 C       -14.1560184065        2.1269978684        6.3741755842
 O       -13.5033463877        1.6016996996        7.1847517941
 C       -15.1509456959        1.2899583669        5.5754901298
 C       -14.5459012660       -0.1433261183        5.5349001266
 C       -15.1152005494       -0.8657519297        4.3515606448
 O       -15.9745667751       -0.3981038522        3.6638378845
 C       -14.2691282980       -2.2998619296        3.8854700637
 C       -12.9724449707       -1.4819982371        3.1130823650
 O       -12.0814905294       -0.8983297890        3.7067619492
 C       -12.9038130029       -1.5159858254        1.5710349621
 C       -13.7037033379       -3.2033571591        5.0083817478
 C       -14.9847508481       -3.0590192900        2.7420500552
 C       -13.0136796732        4.3094647741        7.0722047635
 C       -14.5323291392        4.4812751050        5.0383784224
 C        -9.4030560442        1.0925106353        0.5605932529
 C        -7.9341503044        1.6301997117        2.5091253176
 C        -5.5001192067        8.2479220325       -0.6242956573
 C        -8.0129798776        7.8493158653       -1.5901107510
 C        -5.9028543407        6.0139514187       -7.8431083313
 C        -6.8473827321        7.6453253896       -6.1020637561
 C       -10.8805595392        2.7366139157       -3.1547902216
 C       -12.0710490746        3.6901373708       -5.2511043537
 H       -12.0692168983        6.2040178696       -4.9682702917
 H       -10.5410914442        6.6359704410       -5.1760788060
 H       -11.4141748516        7.1077940184       -3.5826330418
 H        -9.7993169073        3.9736376910       -7.0715429006
 H        -9.0174343815        2.3157468920       -7.0598053122
 H        -7.5982261299        3.7556584554       -7.7799705949
 H        -6.9086246218        3.3055420995       -6.1027884116
 H        -4.8750586204        7.6325974818       -5.1746105209
 H        -3.3426591364        6.9188912808       -4.8060525370
 H        -4.1726304078        7.8764503771       -2.8396080478
 H        -4.1143956146        6.0754120693       -2.6661355611
 H        -8.5451252243        6.0870107658        0.4653604243
 H        -7.4797422645        6.6181768542        1.6723047039
 H        -7.7419353385        4.6215763382        2.5113580810
 H        -6.3611587005        4.1788068714        1.3119207604
 H       -10.6830861123        1.5237996581        3.7153873160
 H       -11.5007357853        1.0652901208        2.1701349521
 H       -12.9469335900        1.6214671131        3.9255828396
 H       -13.2937067569        2.9270231656        2.6084833228
 H       -15.2918669380        1.6877256681        4.5307955858
 H       -16.1113412268        1.4081107484        6.2171299439
 H       -14.9244003742       -0.6780667420        6.4351789092
 H       -13.4391659880       -0.0673227045        5.5389170935
 H       -12.1644977127       -0.7684335535        1.1519079636
 H       -13.9003333572       -1.6887282066        1.1142523109
 H       -12.4797748579       -2.5434476914        1.5786089659
 H       -14.5976870587       -3.7975940826        5.5029289811
 H       -13.3158999397       -2.6180835583        5.9500070217
 H       -12.8960251851       -3.8252137110        4.6202461378
 H       -15.4378810739       -2.2791160394        2.1088568734
 H       -15.8448848812       -3.5555889033        3.1549522541
 H       -14.3040208208       -3.6225765832        2.1384276837
 H       -13.3668065477        5.2917526901        7.2771182736
 H       -11.9723118585        4.5382009898        6.7933092555
 H       -13.0650005707        3.6749242941        8.0690161808
 H       -15.4253303215        4.9588551060        5.4169676911
 H       -14.6631573913        3.8528862290        4.0902075922
 H       -13.7966760896        5.2265754356        4.6273590184
 H       -10.1963617188        1.6355688675       -0.0719880640
 H        -9.5522466064        0.2562064301        1.1472159872
 H        -8.4604353395        0.8627715444        0.0539439683
 H        -7.1419895556        0.9992985990        1.9751770642
 H        -8.3794188474        0.8390266794        3.1049961350
 H        -7.2489470806        2.3826060099        2.9463885987
 H        -5.8667100712        8.1922228713        0.3976576122
 H        -5.7661336173        9.2478335679       -0.9580324150
 H        -4.4192375928        7.8713646894       -0.8212856033
 H        -8.2553741523        8.6240202350       -2.4169380433
 H        -8.1808870467        8.4683629700       -0.7295968435
 H        -8.8275174025        7.0688146703       -1.6038386177
 H        -5.3233617304        6.9655109767       -7.8400515624
 H        -6.7811805578        6.1210557347       -8.4842117497
 H        -5.4386481175        5.0877247814       -8.1525837095
 H        -7.7466922855        7.7928979937       -6.7885371802
 H        -6.0935379603        8.4396895163       -6.2709509324
 H        -7.1376730018        7.7763208723       -5.0613247296
 H       -10.5443680367        1.6975604273       -3.4610793523
 H       -11.8466929249        2.9421858477       -2.6621105398
 H       -10.0222458508        2.9233045946       -2.4468677932
 H       -11.9665158225        4.4819002224       -6.0325892383
 H       -13.0799849662        3.7931945802       -4.7609456890
 H       -12.0930193232        2.6727587285       -5.7170056101
 Na       -7.8721163502        4.2168248522       -2.2933261460
