117

 C       -11.2381906964        6.2490616684       -4.5982642981
 C       -10.6662767056        5.0496669933       -3.6678357412
 O        -9.9605329715        5.2765136536       -2.7020292231
 C       -10.7401519547        3.5844289320       -4.2761992212
 C        -9.3127360305        3.3763074273       -4.9293265859
 O        -8.2945507131        3.2733796934       -4.3273317958
 C        -9.2069917951        3.3020551614       -6.4353233199
 C        -7.7663628610        3.9226957596       -6.8265237311
 C        -7.6594641201        5.3630805691       -6.2351686243
 O        -8.6307402649        5.9001583829       -5.6134488801
 C        -6.4569774236        6.2286817750       -6.4703593295
 C        -5.4246840179        5.6138463340       -5.4164008418
 O        -5.1199003417        4.4073048210       -5.3327003599
 C        -4.4626629522        6.6986520117       -4.8030738493
 C        -4.5955742333        6.9513827408       -3.2634705097
 C        -6.0845212494        6.6078999138       -2.7052017001
 O        -6.8039107603        5.8569070194       -3.3100715551
 C        -6.3699898464        7.1903582486       -1.2701791401
 C        -6.4806053409        5.9748797054       -0.3156042523
 O        -5.7721737447        5.0192979694       -0.7082082918
 C        -7.3198659283        5.8845453841        0.9152879762
 C        -7.3287525784        4.4004990824        1.5324768476
 C        -8.1874717931        3.2343177909        0.7774737312
 O        -8.0038954799        3.1000084422       -0.4066638988
 C        -8.9336441608        2.1489411295        1.5374547816
 C       -10.2066755453        2.8991556865        2.2125359357
 O       -10.1923609274        4.0942943748        2.1505570891
 C       -11.2398463468        1.9378621429        2.9355836506
 C       -12.4912745520        2.4248804306        3.5688213899
 C       -12.3169191507        3.2272500476        4.9265163765
 O       -11.2515821874        3.6434051309        5.2261409964
 C       -13.5237515184        3.5844846090        5.7493856350
 C       -14.0660785558        2.1624579372        6.3188275756
 O       -13.5423772668        1.6375310750        7.2992265188
 C       -15.1564750387        1.3549829871        5.5830380813
 C       -14.5811535983       -0.0743566279        5.5627710565
 C       -15.0581175099       -0.8725863790        4.4248014905
 O       -15.8794335331       -0.4002889560        3.6136570711
 C       -14.2218865086       -2.0761519320        3.8736607368
 C       -13.0697180038       -1.4374456392        3.1559267996
 O       -12.2894147159       -0.7269129793        3.7251323766
 C       -13.1061238147       -1.5618130060        1.5832703595
 C       -13.7493862487       -2.8769213433        5.1048008128
 C       -15.0245771042       -2.9966442687        2.9822783358
 C       -13.2348577442        4.3793235831        7.0957036987
 C       -14.6943519238        4.4999981872        4.9725100697
 C        -9.7027712894        1.1881791720        0.4290411667
 C        -8.0105143671        1.5563117520        2.6961015422
 C        -5.3723727794        8.1098067053       -0.6417214682
 C        -7.7414967416        7.8593023646       -1.4780796129
 C        -5.8779970617        5.9542693366       -7.8963311873
 C        -6.8312818164        7.6956295525       -6.2845879206
 C       -11.1223816377        2.4932708092       -3.0645520097
 C       -11.8910534580        3.4927991674       -5.3235548438
 H       -12.1723746497        6.0005572650       -5.1862833039
 H       -10.5027578603        6.3464924793       -5.4485152776
 H       -11.4900535367        7.1685111077       -4.0826252910
 H       -10.0486036415        3.7221153343       -6.8423644685
 H        -9.1068168184        2.2391252107       -6.8036251856
 H        -7.6495861772        3.7750446285       -7.9248269728
 H        -7.0849715389        3.2906742061       -6.2170210914
 H        -4.5798586424        7.5886346448       -5.4034481903
 H        -3.4276006077        6.3340845606       -4.8956772957
 H        -4.3490602431        7.9812433003       -2.9427739214
 H        -3.9506714740        6.2552726974       -2.6566211108
 H        -8.3186508443        6.4322262815        0.7553103731
 H        -6.9007893254        6.5846820291        1.7347243065
 H        -7.7552133131        4.6883112449        2.4471134539
 H        -6.1791147640        4.0428739112        1.5858704661
 H       -10.6068729867        1.2360217479        3.5934996005
 H       -11.6222535791        1.2748476859        2.1584589106
 H       -13.2173879364        1.5683499025        3.5236989467
 H       -12.7719079348        3.3569266954        2.9441459612
 H       -15.1864622022        1.6753069595        4.5420095773
 H       -16.0632698756        1.5580763191        6.0797406075
 H       -14.9017785771       -0.6205878986        6.4326550715
 H       -13.4888514372        0.0215457428        5.5360603072
 H       -12.3586295014       -0.9656678309        1.1908434835
 H       -14.1158435651       -1.2797763029        1.3129804324
 H       -13.0295433351       -2.6140066051        1.2597430053
 H       -14.3948190398       -3.8579228121        5.0978585344
 H       -13.9611869739       -2.5206754733        6.1453982130
 H       -12.6695969229       -3.1263724534        4.9102360720
 H       -15.5289535880       -2.5166571150        2.1284038296
 H       -15.7810801930       -3.3882948964        3.5535428971
 H       -14.2677910405       -3.7294177443        2.6002335563
 H       -13.5280656865        5.4929968325        6.8710019513
 H       -12.1691435978        4.5250998138        7.2762209616
 H       -13.7890695506        4.0729410723        7.9698571591
 H       -15.2770834279        4.8518711870        5.8010743501
 H       -15.3459227022        3.9510919071        4.3533290101
 H       -14.2542390202        5.2072495508        4.3030972101
 H       -10.5353756775        1.7658154452        0.0463048079
 H        -9.7160033686        0.2070909729        1.0115309038
 H        -8.8167628754        1.0336213509       -0.2805859600
 H        -7.0184971717        1.2581792323        2.4596046237
 H        -8.4657149953        0.6465681655        3.1011901092
 H        -7.7798392394        2.4296831245        3.3916305620
 H        -5.8124577351        8.3649268662        0.3455260466
 H        -5.3110158104        9.0607212339       -1.2291298367
 H        -4.4797116027        7.4754218933       -0.6624381194
 H        -7.8290640759        8.3480447851       -2.4512975903
 H        -7.9856370997        8.7789481390       -0.8172470336
 H        -8.5969134256        7.1213484241       -1.4565523978
 H        -5.2948342954        6.9106150592       -8.0950964520
 H        -6.7215772014        5.8130228646       -8.5077751899
 H        -5.2975214366        5.0594506154       -8.0023286397
 H        -7.7702794764        7.7501016485       -6.8189215941
 H        -6.1420704186        8.4670223373       -6.5440689061
 H        -6.9554403316        7.8969816988       -5.1255072265
 H       -11.4646659954        1.5792890046       -3.5782441114
 H       -11.8353508575        2.9714884850       -2.4249400597
 H       -10.2811890683        2.1009486658       -2.5800952228
 H       -11.7362509381        4.2624914302       -6.1013733750
 H       -12.9181296910        3.6164581589       -4.9070068327
 H       -11.9193183833        2.4649491007       -5.7489613586
 Na       -7.7908294784        4.2156545691       -2.2765767893
