117

 C       -12.0544248892        5.7222535399       -4.1502645563
 C       -10.8165664999        4.9362203806       -3.9044990462
 O        -9.9692892201        5.4511889418       -3.1722620948
 C       -10.6058350581        3.2803933352       -4.3668946089
 C        -9.1962279857        2.9402550019       -5.1075919098
 O        -8.1515420149        2.7122292356       -4.4939271165
 C        -9.0324077491        3.0984111273       -6.7087312798
 C        -7.7960890498        3.9523696334       -6.9938938038
 C        -7.7318347331        5.3971474643       -6.4838949051
 O        -8.6136784906        5.8589922713       -5.7536618399
 C        -6.3270072379        6.0993949533       -6.7332163566
 C        -5.3631302431        5.5546295318       -5.5292121982
 O        -5.3429175102        4.3941352570       -5.2345271072
 C        -4.1551318822        6.5318046023       -4.8592262446
 C        -4.5726925233        7.1997377653       -3.5891240837
 C        -5.7168365153        6.6370497869       -2.7079230817
 O        -6.6503118549        6.1055927070       -3.2621884672
 C        -5.9574729143        6.8990397116       -1.1358258425
 C        -6.2182771533        5.4957146708       -0.4368756220
 O        -5.7697017973        4.4556612246       -0.9523655253
 C        -7.0609561388        5.4972020465        0.8581267211
 C        -7.2605829791        4.2141930797        1.5826992673
 C        -8.1326067115        3.1776609859        0.8658581337
 O        -7.9183054916        3.0958047881       -0.3204478940
 C        -9.0934873339        2.2174311401        1.6602651407
 C       -10.2289014957        2.9375466525        2.2717926699
 O       -10.5188916544        4.0581875058        1.7985811781
 C       -11.0292829226        2.2579999892        3.3713893233
 C       -12.3696326538        2.8918128106        3.6461247185
 C       -12.3981246431        3.8025365336        4.9787676517
 O       -11.3564742463        4.1861403628        5.3424438321
 C       -13.7686004528        4.1646969558        5.8073421540
 C       -14.2084340778        2.6232190141        6.4407499394
 O       -13.5560195304        2.1556193756        7.4032307059
 C       -15.3438205744        1.7412832207        5.5729474553
 C       -15.1601700043        0.1226534948        5.8699299028
 C       -15.2708933909       -0.6623830899        4.6211572459
 O       -16.0233217650       -0.1241405285        3.7843927681
 C       -14.3724087049       -1.9932730537        4.2126641267
 C       -13.3659193403       -1.4080331800        3.1395724896
 O       -12.4316368318       -0.7061741080        3.4218098283
 C       -13.6980086348       -1.6139588235        1.5959872621
 C       -13.3782162002       -2.6419780179        5.3283354342
 C       -15.1905698437       -3.1547140458        3.5029711649
 C       -13.4862602727        5.0634176004        6.9902498056
 C       -14.8240566710        4.6628909794        4.8405877602
 C        -9.7514689604        1.3047969584        0.6077858752
 C        -8.2243970485        1.3650230110        2.8178312069
 C        -4.7258415036        7.4944913316       -0.4178518481
 C        -7.2878620753        7.7524207566       -1.1940137188
 C        -5.5328887090        5.7696249480       -8.0748071882
 C        -6.5105445310        7.6498289138       -6.6333090549
 C       -10.6041638363        2.3790426229       -3.1691568515
 C       -11.8518771808        2.8672954456       -5.2807841247
 H       -12.7833235572        5.4878465212       -3.3262820965
 H       -12.5823892842        5.4365202923       -5.1155662361
 H       -11.9717889075        6.7165867931       -4.2561896620
 H        -9.9643844560        3.5129196680       -7.1260087882
 H        -9.0084948613        2.0315494361       -6.9485563717
 H        -7.5264455130        4.0006538422       -8.0887214283
 H        -6.9889658588        3.4853628447       -6.3608760508
 H        -3.7106776256        7.4234779577       -5.3412299477
 H        -3.3496780553        5.8150608844       -4.7262556611
 H        -4.6150872689        8.2990012403       -3.6480960429
 H        -3.7333341620        7.0898263515       -2.8390843929
 H        -8.0790167824        5.9572974692        0.6292277972
 H        -6.6043907330        6.3729858775        1.3827682175
 H        -7.6942477301        4.4420108085        2.5242957812
 H        -6.2447397886        3.6890266554        1.7783480269
 H       -10.2261587942        2.2084023880        4.2271367891
 H       -11.0167476536        1.1740159383        3.2117343462
 H       -13.1876701673        2.1290510007        3.4071383737
 H       -12.5725468187        3.7374907572        2.8962937136
 H       -15.0827791236        2.0620224189        4.4987792669
 H       -16.4238674987        1.9778108990        5.6641453740
 H       -15.9683362674       -0.1584812718        6.5745813110
 H       -14.2413220138       -0.0074099442        6.5039725281
 H       -12.8571664232       -2.1426041514        1.0868319620
 H       -13.7629700927       -0.5774671399        1.1157153986
 H       -14.5697337133       -2.3141115824        1.3873002644
 H       -12.4373212720       -2.9996152856        4.9338094288
 H       -13.9647962863       -3.4282291372        5.9044915430
 H       -12.7856623106       -1.8844536637        6.0262895570
 H       -15.9853517180       -2.8073715489        2.8658983119
 H       -15.7129034150       -3.5262345540        4.3558988090
 H       -14.5697629807       -3.9908612844        3.1151748846
 H       -12.3515762010        5.3512449752        7.0925135872
 H       -13.6756879758        4.4248969826        7.8943980304
 H       -13.9481461351        6.0046113893        7.0291671394
 H       -15.6210259926        3.9055131098        4.9305366912
 H       -14.5436724605        4.5556700446        3.8171605623
 H       -14.8959980099        5.7315394111        4.9834316996
 H        -9.5473316335        1.8627180985       -0.2770738481
 H       -10.8305915851        1.2485561170        1.0288805484
 H        -9.1332862709        0.3740928955        0.6535880636
 H        -7.5811724772        0.5888393442        2.3819015564
 H        -9.0242344768        0.9687269014        3.5319796402
 H        -7.6707496609        2.0045231090        3.5955288717
 H        -4.7186253373        7.2262035434        0.6843048382
 H        -4.7635552503        8.6094157145       -0.6386573671
 H        -3.8791480059        6.9986149511       -0.8640348474
 H        -7.1833125798        8.7840754354       -1.5248158171
 H        -7.8796400380        7.7927939590       -0.1928185214
 H        -8.0616124780        7.3099104474       -1.8367805923
 H        -4.6098663044        6.3512904225       -7.9047631207
 H        -6.1364564497        6.0365362030       -8.9495564206
 H        -5.2564778539        4.6891528400       -7.9627079832
 H        -6.9381788190        7.9827675560       -7.5762321485
 H        -5.5395804082        8.1484086875       -6.4702445753
 H        -7.0391682706        7.9764216327       -5.6864045386
 H       -11.0267400846        1.3608335829       -3.4336334258
 H       -11.4592115379        2.7234670857       -2.4511745797
 H        -9.6225428939        2.3888837786       -2.6109147635
 H       -12.0325601185        3.5903342260       -6.1049128742
 H       -12.6989155360        2.8373901555       -4.5794533737
 H       -11.7937058450        1.8173944333       -5.6415382071
 Na       -7.9698528569        4.2124172258       -2.3870042290
