117

 C       -12.1441076360        5.2288771751       -4.0495818904
 C       -10.7254883169        4.5920637212       -3.8922516033
 O        -9.8241145314        5.1905130082       -3.3614027517
 C       -10.6243564869        3.2082793082       -4.3730488992
 C        -9.2242686610        3.1945066536       -5.0782652111
 O        -8.2693983336        2.8945796591       -4.4131374026
 C        -9.0808887190        3.4485714921       -6.5785674682
 C        -7.6299001490        3.7657079301       -7.0256348210
 C        -7.4887566972        5.2963141578       -6.5697107095
 O        -8.5007705039        5.8117740557       -6.2913218739
 C        -6.2537594302        6.1015710250       -6.5572244500
 C        -5.2456877730        5.5156066120       -5.3616579746
 O        -5.2718415391        4.2623814470       -5.2043554153
 C        -4.2113334406        6.4404192176       -4.7713850971
 C        -4.7633840937        7.3325487762       -3.5138693950
 C        -5.7692433440        6.4810731603       -2.7386388738
 O        -6.5451911796        5.7773520863       -3.4313752493
 C        -5.7930680147        6.6756472642       -1.1497110420
 C        -6.1588391941        5.3377947275       -0.5187051005
 O        -5.6598241698        4.3040629030       -0.8604008437
 C        -7.0463120940        5.3436034099        0.7461286511
 C        -7.1157602791        3.9991129291        1.4150524136
 C        -8.2068698372        3.1111240531        0.7118342265
 O        -8.4781280494        3.1754767723       -0.4924932544
 C        -9.0427204386        2.1442530762        1.6660041149
 C       -10.2390344045        3.0822342460        2.1839400140
 O       -10.4971435011        4.0603806345        1.5850741045
 C       -10.9241947257        2.6330886066        3.5436686895
 C       -12.3856265534        3.1826357664        3.7570392217
 C       -12.5087384270        4.0708401769        5.0382443119
 O       -11.5060850932        4.4414625590        5.6521949406
 C       -13.8546385485        4.2346445833        5.7300286313
 C       -14.2691076843        2.7570813475        6.2413281530
 O       -13.6392056845        2.4514509498        7.1715439110
 C       -15.3428019082        1.8278767450        5.5924219330
 C       -15.0418187063        0.3637317419        5.8072989689
 C       -15.1544727445       -0.5261633898        4.6713911916
 O       -16.1271814416       -0.2905549173        3.9929176458
 C       -14.3187154711       -1.7649533634        4.3843605457
 C       -13.4697128029       -1.2458920380        3.0195478825
 O       -12.3543407626       -0.7826584388        3.2242831410
 C       -14.0250723469       -1.5511829395        1.6747097030
 C       -13.4385017351       -2.2054581353        5.5635795368
 C       -15.4551919303       -2.8817497907        4.0364210861
 C       -13.7253020717        5.0430724241        7.0351501279
 C       -15.0563834466        4.9038675257        4.8475693598
 C        -9.6987476926        0.9358666969        0.8151615907
 C        -8.0873809159        1.4687903850        2.5919035840
 C        -4.5463994337        7.1022601569       -0.5283873152
 C        -6.7979581348        7.8314605574       -0.8645418652
 C        -5.5418330440        5.6819056356       -7.9093031719
 C        -6.5684647430        7.6121650420       -6.5394249459
 C       -10.5065548587        2.3153075474       -3.0046016234
 C       -11.6609393613        2.6581845093       -5.3209317818
 H       -12.8530012060        4.7519792885       -3.3691682989
 H       -12.6429752067        5.2899828712       -5.0148977438
 H       -12.1555857931        6.3592098111       -3.8532986272
 H        -9.8691427789        4.0624465859       -6.9074858225
 H        -9.3537066920        2.3913684930       -6.8958534012
 H        -7.5933660233        3.5118541620       -8.0825834574
 H        -6.9998091422        3.1248597099       -6.4121781857
 H        -3.8238598216        7.0350136054       -5.5719878815
 H        -3.3296410220        5.8503192449       -4.4248523222
 H        -5.5918558110        7.9967426931       -3.8283734278
 H        -4.1219900942        8.0486779727       -3.0152280225
 H        -8.0260650926        5.7076662105        0.4533589952
 H        -6.6495773236        6.2111749532        1.3067164579
 H        -7.3357412438        4.0631610489        2.5512530295
 H        -6.1222789182        3.5415565761        1.2715054678
 H       -10.1581847151        2.9091021297        4.1585603957
 H       -10.7632840686        1.5661305828        3.7222722956
 H       -13.1843248592        2.4649143064        3.8707720744
 H       -12.6159542591        3.6535009265        2.7922028040
 H       -15.4627258535        2.0659638520        4.5919360931
 H       -16.2902268229        2.0685328685        6.0042958806
 H       -15.6251856107       -0.1066928260        6.5893464526
 H       -14.0867259902        0.2854894362        6.2718492199
 H       -13.7257241177       -2.5253755059        1.3937136258
 H       -13.5748316294       -0.8614392449        1.0355366099
 H       -15.0846606866       -1.6949239922        1.7215553181
 H       -12.9742923562       -3.2159615137        5.4338977317
 H       -14.1364545573       -2.2264612949        6.3339269068
 H       -12.6243004828       -1.6495827013        5.8174008739
 H       -16.2590918382       -2.2824625122        3.5582916327
 H       -15.8058910465       -3.4905345290        4.9016406819
 H       -15.0350283904       -3.6007977739        3.3502883438
 H       -12.7719083327        4.9333440454        7.4549560885
 H       -14.4587005772        4.6888690646        7.7336537666
 H       -13.7753774322        6.1775052673        6.8774056248
 H       -15.9469899830        4.5614224070        5.3192918126
 H       -15.0608708118        4.4559418759        3.8335312225
 H       -14.9264933830        5.9931593527        4.9710361819
 H        -9.8667530492        1.3330332499       -0.2158321655
 H       -10.5230601474        0.7008645822        1.4172750771
 H        -8.8900779934        0.2220188610        0.8169302103
 H        -7.5147405735        0.8645180282        1.9108770788
 H        -8.4929850573        0.9869078621        3.4011421839
 H        -7.4674266507        2.1404913728        3.1194512748
 H        -4.7607194891        6.8240496928        0.4936645478
 H        -4.3355273557        8.1629123656       -0.6721655586
 H        -3.6891903011        6.4014645908       -0.8058033872
 H        -6.8102639687        8.6029302292       -1.6886983464
 H        -6.5470445908        8.3492513834        0.0354040421
 H        -7.8842174435        7.5990478505       -0.7032847269
 H        -4.8807935985        6.5033469008       -8.1752596056
 H        -6.3884664712        5.7382241954       -8.5612045922
 H        -5.0782074924        4.7198686216       -7.8258919962
 H        -7.1554617312        7.8681987815       -7.4354192009
 H        -5.6918218775        8.2533974611       -6.4648725025
 H        -7.1870068849        7.7624677080       -5.6327816923
 H        -9.8436573968        1.5269699126       -3.1482158004
 H       -11.3395042108        1.8242470504       -2.7015800991
 H       -10.2079682385        3.0004338320       -2.2932037163
 H       -11.4825277898        3.1164361179       -6.3039030883
 H       -12.6984875910        2.9320843777       -5.0207796416
 H       -11.5373859514        1.5556738839       -5.3690608087
 Na       -7.9275228148        4.1718125691       -2.7592824151
