117

 C       -11.9971642672        4.9156494631       -4.0723077513
 C       -10.8052876589        4.0931400991       -3.8029106177
 O       -10.0128817007        4.5316748837       -2.9675204988
 C       -10.3925104417        2.6841208489       -4.3757285035
 C        -8.8728124483        2.9010463535       -4.9037890620
 O        -7.8598749531        2.8070302460       -4.2062531673
 C        -8.7949797372        3.2029754043       -6.4434775038
 C        -7.4212048213        3.6587845747       -6.8039394303
 C        -7.4739850480        5.2782812231       -6.9104919354
 O        -8.5188578153        5.8683313224       -6.6446711653
 C        -6.0277022497        6.0464357894       -6.9326251295
 C        -5.1233564313        5.5181577312       -5.6803285487
 O        -5.1329013392        4.3437115373       -5.5191430412
 C        -4.1278350179        6.5148151397       -4.8640406345
 C        -4.7747044848        7.2910269130       -3.7645904830
 C        -5.6109704653        6.4845997699       -2.8161173527
 O        -6.6716333365        6.0095825953       -3.0640915431
 C        -5.2510042829        6.3259432805       -1.1589919203
 C        -6.0696574223        5.0794003303       -0.6654363954
 O        -5.7300246181        4.0378188966       -1.1935091650
 C        -7.2131720166        5.1034447872        0.3250906313
 C        -7.2901521244        3.7627035353        1.0540367573
 C        -8.4661992757        2.8466637331        0.6507921791
 O        -8.9352277896        2.8863087207       -0.4627419849
 C        -9.3223112044        2.1388006001        1.7385495458
 C       -10.4390817941        3.2118725528        2.3566267067
 O       -11.1068575047        3.8503885598        1.5388396204
 C       -10.9542343239        3.1857751409        3.7234686515
 C       -12.2257674190        3.9537774072        3.8991772532
 C       -12.4117445226        4.6850822617        5.2165585295
 O       -11.4914349369        5.1582696875        5.8150919728
 C       -13.8987287214        4.8524247028        5.6627462937
 C       -14.3023470217        3.3896031308        6.2109509624
 O       -13.7742678696        3.0544368466        7.2911203145
 C       -15.1995687543        2.3879090375        5.5563892104
 C       -14.5392018724        0.9485484371        5.5867900764
 C       -15.2574333200       -0.3578661416        4.8317445428
 O       -16.3332511106       -0.2839604286        4.2308509063
 C       -14.5120329767       -1.6969539966        4.6454678007
 C       -13.8594356521       -1.4295672196        3.1974687351
 O       -12.7135203218       -1.1405297949        2.9969539609
 C       -14.8914245379       -1.4645237467        2.0319969830
 C       -13.3318805537       -2.0379136587        5.5891058573
 C       -15.4317168049       -2.8188448934        4.6585295762
 C       -14.1170757119        5.8112241008        6.8503700762
 C       -14.7947452047        5.3570853416        4.5144640248
 C       -10.3568508327        1.1417789633        1.0900023563
 C        -8.5466970453        1.5367285803        2.9905860955
 C        -3.7341227654        6.0289455626       -0.9015418120
 C        -5.7327210981        7.7286092891       -0.5609223561
 C        -5.2959999094        5.6145035326       -8.2541758260
 C        -6.3057658990        7.6509947083       -6.8989311025
 C       -10.5692412533        1.6004509979       -3.3292253851
 C       -11.3791562646        2.1524303695       -5.5620006908
 H       -12.6593362965        4.4269141953       -4.7643481154
 H       -11.8055104903        5.9604419275       -4.3952713559
 H       -12.5736534488        5.1902303903       -3.1943942095
 H        -9.5148155589        3.9888229859       -6.5740847136
 H        -9.2731030144        2.3364238711       -7.0148043019
 H        -7.1714190027        3.2621466315       -7.7967306625
 H        -6.6258482613        3.4169786038       -6.1562534872
 H        -3.5060525775        7.2204991543       -5.3934825393
 H        -3.4437056764        5.7748663403       -4.4163027885
 H        -5.3477706911        7.9698515511       -4.3969769753
 H        -4.0724390565        7.9545369397       -3.2089032140
 H        -8.1360554124        5.1188617434       -0.2615523166
 H        -7.1949624697        5.9264660514        1.0124753032
 H        -7.3365223700        3.9423570139        2.0829872436
 H        -6.3950618141        3.0863598087        0.9811202537
 H       -10.3245205420        3.5287318471        4.4862084794
 H       -11.1530983556        2.2008119823        4.1021494456
 H       -13.0592432907        3.4068610348        3.6879356923
 H       -12.5549826773        4.7427972360        3.2925583560
 H       -15.2579873931        2.7333292538        4.5345738751
 H       -16.1485926302        2.2949498173        5.9371663073
 H       -14.4602947763        0.6340855732        6.6036397471
 H       -13.5039977213        0.9346800097        5.2365349772
 H       -15.9001688516       -1.1681659250        2.2545755890
 H       -14.7574789271       -2.4845528016        1.7745085995
 H       -14.5478844199       -0.9299286222        1.1759044610
 H       -12.7844021278       -2.7661450854        5.2444443084
 H       -13.6606335443       -2.3515984738        6.5538246864
 H       -12.8717201473       -1.1499665262        5.8898116353
 H       -16.2288289129       -2.5974878954        3.9279702956
 H       -15.8371093821       -2.9930440953        5.6148044287
 H       -14.9170354333       -3.7975009306        4.3300150556
 H       -15.2514261467        5.9736663448        6.9930229526
 H       -13.5960739975        6.6978028611        6.5479735926
 H       -13.8256090259        5.5944820655        7.8226290566
 H       -15.8506411738        4.9466341113        4.4821825486
 H       -14.2546161966        5.2575481489        3.6112438770
 H       -15.0887429815        6.3810060966        4.7155736386
 H       -10.8330687129        1.7792899157        0.4253731530
 H       -11.0758233211        1.0494460404        1.8964005761
 H        -9.8261189806        0.3096908719        0.7604902686
 H        -8.0145951131        0.6355593055        2.8571562975
 H        -9.2777691020        1.2412883222        3.7483835490
 H        -7.9234747700        2.3146161983        3.4598607559
 H        -3.4451823917        5.6548471690        0.1330911298
 H        -3.2467808814        7.0393801545       -1.1256254903
 H        -3.3771874640        5.3675838464       -1.6690087686
 H        -5.2195469011        8.5033712413       -1.0211583659
 H        -5.6353585103        7.7604391762        0.5814171373
 H        -6.6957057284        8.1765174748       -0.7169437589
 H        -4.5183593894        6.3750075963       -8.3509028683
 H        -5.9824063715        5.7515491113       -9.0340384917
 H        -4.8861616701        4.6631199929       -8.0122596054
 H        -6.8585574149        8.0645421753       -7.7243482937
 H        -5.3424503010        8.1535500671       -6.8931548129
 H        -7.0033548722        7.8541052861       -6.0929880087
 H       -10.3914205928        1.8341723667       -2.3543239723
 H        -9.9050742956        0.8223187866       -3.5682886877
 H       -11.5022723240        1.1243556283       -3.3997389631
 H       -11.2677175584        2.5688409983       -6.5833586322
 H       -12.3713304088        2.4894750638       -5.2132173619
 H       -11.2600780531        1.0700491897       -5.6285319857
 Na       -8.0537041003        3.9199533525       -2.2794078928
