117

 C       -11.9424965945        4.6767728896       -4.3482962093
 C       -10.7387764913        3.8870236212       -3.7264838379
 O       -10.2764585949        4.2262052191       -2.6552397362
 C       -10.3768250996        2.5997124901       -4.5104144227
 C        -8.8924439573        2.7861814923       -5.0436572353
 O        -8.0090861179        2.7467994890       -4.2236993414
 C        -8.6454963562        3.0601453605       -6.5418078420
 C        -7.3083484676        3.6775501921       -6.8652491968
 C        -7.3095575817        5.2918413378       -6.7553984450
 O        -8.3050687560        5.9484658363       -6.6685145391
 C        -5.9452068860        5.9723836465       -7.0264018712
 C        -5.0247312875        5.6196098529       -5.7480901921
 O        -4.9081929952        4.3927574416       -5.4117080241
 C        -4.1899313684        6.7159091933       -5.0302420248
 C        -4.8437985313        7.2918034038       -3.6361390909
 C        -5.7126635771        6.2906891447       -2.7476781697
 O        -6.8769620540        6.0143333163       -3.1643008283
 C        -5.2119899480        6.0714288306       -1.2685407782
 C        -6.0200928227        4.8453051783       -0.7017961053
 O        -5.8456606578        3.7115002205       -1.1388929869
 C        -7.1364357596        5.0799448224        0.3768269850
 C        -7.4153688452        3.8190087381        1.2379106378
 C        -8.6458266220        2.9457904209        0.7786236293
 O        -8.7666884047        2.6237528422       -0.4056677122
 C        -9.5484804721        2.1702099124        1.8510380783
 C       -10.6491442271        3.2978090268        2.3034386256
 O       -11.0994480054        3.9531548137        1.4476127564
 C       -10.9338699197        3.6641420470        3.8388434320
 C       -12.3829966060        4.1071561104        3.8675830779
 C       -12.6016903032        4.8690088392        5.2743157714
 O       -11.7061676575        5.3417408869        5.9531269899
 C       -14.1172827896        5.0433582853        5.7800963970
 C       -14.4544781379        3.6146021224        6.2242766799
 O       -14.0299259814        3.2985579156        7.2833185208
 C       -14.8609026633        2.4275246777        5.2021166182
 C       -14.2431283648        1.0579872194        5.6077574160
 C       -15.1400007347       -0.0687796363        5.0188019878
 O       -16.3267304758        0.1679344265        4.9648467021
 C       -14.5292912906       -1.5447843436        4.6126783023
 C       -13.9736187917       -1.3840773413        3.1267007385
 O       -12.7684443022       -1.2771157432        2.9485597135
 C       -14.9713361478       -1.6512364251        2.0263611191
 C       -13.3380891794       -1.8607927220        5.4630802606
 C       -15.7023950776       -2.6571609738        4.7813688844
 C       -14.0129971226        6.0403475676        6.8833595921
 C       -15.0654529917        5.4954734451        4.5582776643
 C       -10.3831886818        0.9698653036        1.1917295405
 C        -8.6037456812        1.5664359045        2.8877559771
 C        -3.7891264096        5.6158908934       -1.3266931696
 C        -5.3607011201        7.3022970419       -0.3929027812
 C        -5.3573096067        5.5518156738       -8.4809280292
 C        -6.1908926247        7.4226549070       -7.0867127145
 C       -10.2496461777        1.4458221996       -3.3646640341
 C       -11.3214154356        2.1960357953       -5.6158965752
 H       -12.5749744525        4.3534398439       -5.2046396676
 H       -11.6894848589        5.7043411909       -4.5700742120
 H       -12.6304427797        4.9105005392       -3.5944840214
 H        -9.5428680100        3.6801133958       -6.8337523515
 H        -8.9358314375        2.0928708043       -6.9001086583
 H        -6.8018608987        3.3809685531       -7.7733503920
 H        -6.6313222934        3.4028801517       -6.0223176059
 H        -4.1880819896        7.5338595301       -5.7615164608
 H        -3.1433761807        6.4755120431       -4.8006911389
 H        -5.4185996167        8.2412709718       -3.8227992136
 H        -3.9354456262        7.5272724676       -3.0649017466
 H        -8.1094379398        5.1953755015       -0.0624138433
 H        -6.8414463656        5.9163220094        1.0443979285
 H        -7.4842052046        4.1272244663        2.3048936386
 H        -6.6409129709        3.0449481932        1.3687960238
 H       -10.2197126686        4.4964587173        4.1704239395
 H       -10.7967682369        2.8935159006        4.6312010415
 H       -13.1028671645        3.2152518041        3.8694491393
 H       -12.8609353007        4.6637015842        3.0366096727
 H       -14.7120519854        2.6010564761        4.1053919805
 H       -16.0256622151        2.2401336899        5.3424838576
 H       -14.2790059669        0.9598916057        6.7324323421
 H       -13.1936985374        0.9125810046        5.2571003198
 H       -15.4641883769       -0.6557372238        1.8227060652
 H       -15.7498584922       -2.4206408864        2.3180603132
 H       -14.4452442671       -2.0855581324        1.0885332040
 H       -13.1315817249       -3.0157775202        5.4392291489
 H       -13.5133580786       -1.7588008217        6.5414334535
 H       -12.4903561791       -1.1316730849        5.4020670199
 H       -16.6866543708       -2.1916918815        4.5494596858
 H       -15.7037379981       -2.8925926883        5.8818320827
 H       -15.6691668050       -3.5372792820        4.1898248410
 H       -14.7181233041        6.8031183119        6.9160020953
 H       -13.0192778178        6.2760601500        7.2043968533
 H       -14.3688569676        5.4278740572        7.7694758517
 H       -16.0585669518        5.1555131969        4.8635498319
 H       -14.7260178023        5.1120386303        3.5162727368
 H       -15.2800341410        6.6206323847        4.5363128446
 H       -10.4803769861        1.3174781605        0.1781110796
 H       -11.3149999003        1.0388384475        1.7933262424
 H        -9.7165971912        0.1249958127        1.3678311428
 H        -8.4081843367        0.4976030624        2.7842258413
 H        -9.0296832285        1.6061369593        3.8724061837
 H        -7.6187975185        1.9960945698        2.7073825195
 H        -3.4489751462        5.6439894929       -0.3119561191
 H        -3.1892952201        6.4498430781       -1.6735115762
 H        -3.5752171189        4.6914549127       -1.8945248624
 H        -5.1073536054        8.2509688693       -0.9976579820
 H        -4.7155860688        7.2998653617        0.4533479053
 H        -6.3261943116        7.6601965238       -0.0704047546
 H        -4.7569559541        6.4326958087       -8.7997633802
 H        -6.2745966425        5.3215801869       -9.0732603007
 H        -4.6915726483        4.7080633357       -8.2664706590
 H        -7.0670241834        7.6457937331       -7.6662180563
 H        -5.3452732666        7.9434477765       -7.4415210569
 H        -6.5207801889        7.7778989970       -6.0378689054
 H       -10.2195812541        1.9510984999       -2.3501170439
 H        -9.5422501289        0.5896325905       -3.5336386088
 H       -11.1991306916        0.8784460219       -3.2574474440
 H       -11.7399962862        3.0278866181       -6.1273511483
 H       -12.1193240408        1.5408104958       -5.2930059945
 H       -10.6863908586        1.6492986677       -6.3032775928
 Na       -7.7252805131        3.9646504533       -2.4323255225
