117

 C       -11.9651902404        4.7434045398       -4.3202991018
 C       -10.8912347559        3.7632785344       -3.7840232899
 O       -10.2877603492        4.0197697483       -2.7347766183
 C       -10.3533330004        2.5410064376       -4.6364586515
 C        -8.8650744044        2.8208354446       -5.0451627238
 O        -7.8753996294        2.7459320149       -4.3120931986
 C        -8.6190619978        3.0339750169       -6.5100874366
 C        -7.3070386652        3.6600840162       -6.8703948084
 C        -7.2675360298        5.2483664909       -6.8320719117
 O        -8.3266382227        5.8040454783       -6.6018044768
 C        -5.9004356174        6.0025972270       -7.0244241084
 C        -4.9274445585        5.6897227985       -5.8248829001
 O        -4.6921925553        4.5624683365       -5.3701240345
 C        -4.2358725867        6.8156271146       -4.9440510192
 C        -4.9772542196        7.2436956355       -3.6784939810
 C        -5.7886062450        6.3096956669       -2.8120501086
 O        -6.8723479787        5.8843330975       -3.2317791936
 C        -5.2226122939        5.9044495211       -1.3180339285
 C        -6.0393674930        4.6873119371       -0.6583687235
 O        -5.8972629153        3.5771934564       -1.0694800210
 C        -7.0940608518        5.0061780065        0.4772394892
 C        -7.6106849853        3.8304878470        1.2987917941
 C        -8.5443223129        2.8191370652        0.7703801856
 O        -8.6944673788        2.6593241355       -0.4933702462
 C        -9.4692213071        2.1317553714        1.8533205779
 C       -10.6177517854        3.4881416521        2.2874059957
 O       -11.1111676079        4.0624881394        1.3529162410
 C       -10.8766215306        3.8642593142        3.6511686636
 C       -12.3509410357        4.2424897444        3.9388310190
 C       -12.6618175464        5.0393615040        5.2291671323
 O       -11.7190239733        5.3697680257        5.8769942866
 C       -14.1125099794        5.0708222632        5.7788693104
 C       -14.2626110989        3.5503563752        6.1680822392
 O       -14.3081172882        3.3446990138        7.3831834804
 C       -14.7816359649        2.5226444904        5.2582670653
 C       -14.0737840207        1.2033868431        5.5144934239
 C       -15.0666953874        0.0351559590        5.0977667376
 O       -16.3122415404        0.2192370052        5.2886467094
 C       -14.5673088928       -1.3932790424        4.7100488362
 C       -14.0790080769       -1.4923231395        3.0914870743
 O       -12.9466897426       -1.2332929151        2.8757905003
 C       -15.0125275309       -1.6817934167        1.8908285964
 C       -13.5000284942       -1.6867777572        5.5913288673
 C       -15.6611893724       -2.3750744483        4.9251081517
 C       -14.2391863725        6.0321581820        6.9644226698
 C       -15.1919118919        5.4851494302        4.6588931805
 C       -10.4055839734        0.9555992758        1.1777438173
 C        -8.6255438734        1.6145736495        3.0131158579
 C        -3.6860958703        5.3865804889       -1.5252800071
 C        -5.1194004495        7.1429999219       -0.4072334469
 C        -5.3143903154        5.3070496420       -8.2973764523
 C        -6.1478069574        7.5844472868       -7.1309041777
 C       -10.0427246508        1.4283827385       -3.5342658510
 C       -11.4340635904        2.0179404548       -5.5864281506
 H       -12.6874683139        4.4790654468       -5.1336411155
 H       -11.5858408221        5.8046041874       -4.5780914628
 H       -12.6226683326        5.0497670098       -3.5523371409
 H        -9.4261355068        3.4625276083       -6.9097935248
 H        -8.7443423281        1.9457567157       -6.8128857727
 H        -7.0579158624        3.4184059839       -7.9561160088
 H        -6.4504730246        3.2365075732       -6.2524934609
 H        -4.1289613897        7.6873804835       -5.5235907253
 H        -3.1988117115        6.5538024921       -4.5188021111
 H        -5.6999740709        8.0065501072       -3.9625771377
 H        -4.1325918147        7.6913410320       -3.1124432225
 H        -7.9719982511        5.4536296388       -0.0891329064
 H        -6.6403159517        5.7107668451        1.2787076121
 H        -7.9667595347        4.1749464302        2.2511802199
 H        -6.6351828574        3.2296109505        1.7981531388
 H       -10.1556266421        4.7505960027        3.7815761758
 H       -10.3583901568        3.0415464449        4.3082557089
 H       -13.0744363155        3.4958303559        3.7875062604
 H       -12.6905138972        4.9097588830        3.0299750752
 H       -14.5851821275        2.7581782142        4.1956903633
 H       -15.8778751012        2.4916622427        5.4132701358
 H       -13.9514127262        1.0692052229        6.6244308881
 H       -13.0683007388        1.1881549599        4.9798014625
 H       -15.0857632158       -0.6280907057        1.5865811382
 H       -16.0612707312       -2.0760851441        2.0777820966
 H       -14.5445576494       -2.3136148389        1.0722831845
 H       -13.4149007172       -2.7358449572        5.6822533655
 H       -13.5452388369       -1.3867019316        6.7089302697
 H       -12.5496082690       -1.0701193515        5.3070358316
 H       -16.6283799827       -1.9833700930        4.5478739740
 H       -15.7574993220       -2.5970378896        5.9269543218
 H       -15.5398368443       -3.2675305180        4.2910370068
 H       -14.9374232313        6.9618621597        6.7841814147
 H       -13.3029562422        6.2192056861        7.4559603905
 H       -14.8173916508        5.5772971678        7.7891677904
 H       -16.1376140107        5.4391950272        5.2566621810
 H       -15.2116807171        4.7786147450        3.8667583173
 H       -15.1428498083        6.4467230508        4.1882046590
 H       -10.7307956981        1.4054211604        0.2461401544
 H       -11.1866580039        0.7322101989        2.0221047331
 H        -9.5610651913        0.2242491457        1.1021086983
 H        -8.2923993737        0.5672151376        2.9268070529
 H        -9.1799970458        1.5802518107        3.9846421584
 H        -7.6182417091        2.1339150887        2.8752281825
 H        -3.1964063194        5.5903585543       -0.5581933903
 H        -3.1619141948        6.2696598785       -1.9602485985
 H        -3.4473210931        4.4397762766       -2.0039625594
 H        -4.4605377897        7.8637278013       -0.9034817581
 H        -4.6487516757        7.0907292782        0.6498072096
 H        -6.0008151627        7.7636805279       -0.3350161585
 H        -4.4772897886        6.0499162133       -8.5865081246
 H        -6.1912848101        5.4647235827       -8.8336180281
 H        -5.0001721597        4.2526074512       -8.1973890391
 H        -7.0220323693        7.8024998972       -7.7666429124
 H        -5.2572407091        8.1420098177       -7.4062060116
 H        -6.5289503836        7.9420130005       -6.0968710487
 H        -9.5845593489        1.9115408744       -2.6354236668
 H        -9.6252750855        0.4287255856       -3.9302085182
 H       -11.0083093339        1.0354321040       -3.0303490046
 H       -11.7531711659        2.8361973648       -6.2201713910
 H       -12.2543038587        1.6151610985       -5.0073434462
 H       -11.0424020800        1.2017609100       -6.1850845135
 Na       -7.8148771236        3.8273700625       -2.4289554262
