117

 C       -11.8634784120        4.2843598332       -4.4811363627
 C       -10.6627166771        3.4805350286       -3.9716775323
 O       -10.1588450726        3.8357762359       -2.8986220294
 C       -10.2159045023        2.3102270580       -4.6870626572
 C        -8.8127835069        2.8201323674       -5.3308330958
 O        -7.8941064457        3.0101381971       -4.5483440305
 C        -8.6909002317        3.0269039816       -6.8047043016
 C        -7.3311628563        3.6218084206       -7.2015805472
 C        -7.1675872014        5.0589402944       -6.7069453529
 O        -8.0758300315        5.7016135120       -6.2377329027
 C        -5.7681495591        5.8262513309       -6.9537868834
 C        -4.9783708201        5.7396032428       -5.5381170235
 O        -4.2812378781        4.7165478142       -5.2579371170
 C        -4.7124034601        6.9391081586       -4.6397202671
 C        -5.7218975900        7.0666590973       -3.4743443679
 C        -5.9349016859        5.8410821185       -2.7664725751
 O        -6.8501220792        5.0876231133       -3.1517795818
 C        -5.0787963364        5.4100295006       -1.5553454610
 C        -5.9190967393        4.5525204248       -0.6881668729
 O        -5.9324813196        3.3684740034       -0.9541989434
 C        -7.0150421704        5.1175227175        0.3884447697
 C        -7.4228885651        4.0188105586        1.3765382986
 C        -8.4435360471        3.0109367846        0.9458795606
 O        -8.5166079166        2.5831268141       -0.2357395532
 C        -9.6568251304        2.4648620302        1.9422304410
 C       -10.6612402709        3.8069156404        2.1117009621
 O       -11.0749064856        4.1971182000        1.0266575534
 C       -11.0062298786        4.3550277987        3.4240033166
 C       -12.4219477067        4.9213263292        3.7027975204
 C       -12.6568959523        5.2999038293        5.1767131903
 O       -11.8392167554        5.7561793835        5.9382636428
 C       -14.0100514537        5.1824902661        5.6654834527
 C       -14.4574528536        3.6904624975        6.2280279432
 O       -14.5826014101        3.4538778107        7.4158670373
 C       -14.8233559360        2.6705280783        5.1484823709
 C       -14.0645543738        1.3754063594        5.1201561690
 C       -15.1382268024        0.1873615122        5.2002166138
 O       -16.1799590155        0.4616795660        5.8426585754
 C       -14.6339502815       -1.3555984995        4.9099886175
 C       -14.3304984459       -1.1166559098        3.3248441008
 O       -13.1975155536       -0.8352426217        3.0989002183
 C       -15.4611112914       -1.5677982407        2.2510867756
 C       -13.3940161655       -1.7969225449        5.6436443432
 C       -15.8187479363       -2.2427076314        5.2224090388
 C       -14.0539409378        6.1371758915        6.9597448500
 C       -15.0748133558        5.6498218813        4.6566719865
 C       -10.3712315701        1.3021235801        1.1121474016
 C        -8.9083734387        1.9514335211        3.1848562819
 C        -3.8025257539        4.6218052016       -2.0949891100
 C        -4.3446761160        6.7171110990       -0.7475961145
 C        -4.7736079922        5.3196257114       -8.0472661050
 C        -6.2359352620        7.3839133725       -7.2526554817
 C        -9.9900031382        1.2009991793       -3.6258036884
 C       -11.2522195055        1.8823119490       -5.7684822201
 H       -12.7706885779        3.7795051026       -4.7943016183
 H       -11.5871051773        4.8450853295       -5.3780195713
 H       -12.2114703987        5.0259366996       -3.8886367427
 H        -9.6116214237        3.4943102442       -7.1028091522
 H        -8.7236872446        2.0152796570       -7.3356530635
 H        -7.1902450692        3.4672755122       -8.2224149339
 H        -6.5412638479        3.0671404520       -6.7095570018
 H        -4.6642670395        7.8504378977       -5.1857972883
 H        -3.6945821487        6.7687549570       -4.1534357384
 H        -6.6574967025        7.3847353218       -3.9660276718
 H        -5.2587861743        7.7026622792       -2.7266893142
 H        -7.8147439818        5.3276127044       -0.2016526341
 H        -6.7644147917        5.9537593235        1.0034737406
 H        -7.6963621345        4.4423096831        2.2907557747
 H        -6.4430420406        3.5923790047        1.7762169224
 H       -10.1890936835        5.0294113341        3.4482558898
 H       -10.7881632303        3.5201565256        4.0874552247
 H       -13.2658825822        4.2523726692        3.4233637173
 H       -12.4292516838        5.8145327662        3.0263957852
 H       -14.6905813139        3.0570630021        4.1600453283
 H       -15.9127703258        2.4726548549        5.3775597846
 H       -13.4928453144        1.3778891237        6.0336378619
 H       -13.4938379793        1.3271009859        4.2240749795
 H       -15.2088912321       -1.6627385973        1.2097646891
 H       -16.2614840819       -0.8137695765        2.2523114722
 H       -15.8431198930       -2.5398982778        2.6695893286
 H       -13.0756683186       -2.8030836042        5.4135916306
 H       -13.6713198183       -1.8098017920        6.7165366575
 H       -12.4932943975       -1.1262379029        5.4296861572
 H       -16.5306814671       -2.0087888000        4.3711159668
 H       -16.3469753355       -1.9883249793        6.1351816985
 H       -15.6421998172       -3.3171429400        5.1632197549
 H       -13.3450956696        6.9689920078        6.7371551558
 H       -13.7815537630        5.7426636226        7.8501385364
 H       -14.9974137007        6.6448902907        7.0986604507
 H       -16.1355560814        5.9029404472        4.9411437032
 H       -15.2535828351        5.0469877748        3.7603311208
 H       -14.4923192511        6.3860516864        4.0577755426
 H       -10.9651772557        1.9221037207        0.6011260800
 H       -10.7371392596        0.6350584133        1.9064350287
 H        -9.6859163387        0.8087552394        0.4914884766
 H        -7.9664203073        1.6199681407        2.9749110956
 H        -9.4747088756        1.2038980071        3.6368443533
 H        -8.6454566242        2.7446682088        3.8916632550
 H        -3.3166106134        4.1718446728       -1.2528750178
 H        -2.9967680355        5.2090962134       -2.5045964398
 H        -4.2353922559        3.8448679339       -2.7041137583
 H        -3.5243535513        7.1869596970       -1.2501141866
 H        -3.6888426566        6.3984447971        0.0645309791
 H        -4.9976477362        7.4526503564       -0.3046383363
 H        -4.0813345189        6.2171986996       -8.0016178679
 H        -5.2971661914        5.3109738823       -8.9552109903
 H        -4.3743577183        4.3913045632       -7.7135029108
 H        -6.6899213548        7.3836203384       -8.2065619894
 H        -5.4570396697        8.0427012099       -7.1515884348
 H        -6.9219764250        7.7231675403       -6.3898840615
 H        -8.9852596792        1.3038494423       -3.3118000490
 H       -10.1365683827        0.1858563883       -3.9828581145
 H       -10.5097825027        1.3587182926       -2.7427784113
 H       -11.2396359778        2.4650434542       -6.6770451863
 H       -12.2285007289        1.6774871342       -5.3547807898
 H       -10.9190599065        0.8606779522       -6.0055442362
 Na       -8.0700519670        3.3489847072       -2.2759079378
