117

 C       -11.7571445232        4.0780611487       -4.6524515881
 C       -10.5212120665        3.2850655940       -4.2762614938
 O        -9.9642459259        3.5946350079       -3.2331153593
 C       -10.0558287750        2.0383414735       -5.0965181877
 C        -8.6135470435        2.4704191710       -5.5840720400
 O        -7.6256400800        2.4173455695       -4.8923620394
 C        -8.5197226014        3.0320289316       -7.0293314312
 C        -7.1975005489        3.8132980943       -7.1464569042
 C        -7.0226029318        5.1179185948       -6.4306306645
 O        -7.7637907020        5.5194303483       -5.5764564838
 C        -5.6923135317        5.9448048595       -6.8643867940
 C        -4.9441349027        5.9094077522       -5.5508317077
 O        -4.3884398922        4.8236501616       -5.3180211760
 C        -4.9775420507        6.9890313649       -4.4715410114
 C        -6.0022780283        6.7507310107       -3.2965829437
 C        -6.2381570282        5.4415258901       -2.7752484673
 O        -7.2944658978        4.8682543492       -2.8990410340
 C        -5.0708291407        4.9158899571       -1.8593376110
 C        -5.7117583177        4.0504107386       -0.5554936573
 O        -5.4444274165        2.9589962606       -0.2597080147
 C        -6.6778161644        4.9221490465        0.4509492652
 C        -7.6435731293        4.2588817485        1.4183844182
 C        -8.6360999952        3.1760221860        0.8442457989
 O        -8.7010596759        2.7376775404       -0.3297634456
 C        -9.6445390383        2.8641607518        2.0680641128
 C       -10.7752898038        4.1349592722        2.1089241805
 O       -11.0582156628        4.5255011728        1.0292243045
 C       -11.3008885619        4.4358240550        3.4659060562
 C       -12.3978408021        5.4386717238        3.5659309417
 C       -12.6918556254        5.6723383624        5.1025946885
 O       -11.7951876066        5.8610544512        5.8700268655
 C       -14.3193938017        5.6056185167        5.7144186775
 C       -14.4069453363        4.0517356539        5.8654876246
 O       -13.9828747959        3.6480890351        6.9544944511
 C       -14.6320184380        2.8461786235        4.8898947257
 C       -14.2502855338        1.4715145513        5.5616236111
 C       -15.3535739253        0.3633342689        5.7537497475
 O       -16.5247530543        0.5271488966        6.0549777124
 C       -14.8074451124       -0.9992108971        5.1622521573
 C       -14.7050601227       -0.7760842545        3.5886882265
 O       -13.6670808874       -0.3435198147        3.1286352029
 C       -15.6971448571       -1.4223366348        2.6658413299
 C       -13.2956215625       -1.2917811000        5.7031675713
 C       -15.7519336339       -2.2388458509        5.5881552903
 C       -14.1234343629        6.3018934988        7.0605098044
 C       -15.1691921439        6.2609481330        4.5143829039
 C       -10.5353139794        1.5703038362        1.6894591157
 C        -8.9291806988        2.5497007386        3.3630966860
 C        -4.1540525731        3.8189100886       -2.5675112576
 C        -4.1430459315        5.8760221696       -1.3407638674
 C        -4.7326227465        5.1102057248       -7.8051296694
 C        -6.1005751752        7.3355668685       -7.5390497488
 C        -9.8431685199        0.9760884676       -3.9724382067
 C       -10.9757500035        1.6046145297       -6.2274543750
 H       -12.5933817098        3.9170688120       -4.0880679598
 H       -12.1197974491        3.9619397912       -5.6599213533
 H       -11.5398563946        5.1696409680       -4.5153398414
 H        -9.3096997005        3.7175457067       -7.1572644686
 H        -8.6453099364        2.1249417441       -7.7891421261
 H        -7.0957540244        4.0897246714       -8.1614991923
 H        -6.3157735473        3.2639965823       -6.8507882181
 H        -5.2160471917        7.9543112109       -4.8135045131
 H        -3.9115644471        7.0960197837       -4.1070961268
 H        -6.8815322887        7.0637858717       -3.8313156269
 H        -5.6628153407        7.4154704990       -2.5017236936
 H        -7.2244715343        5.6876008389        0.0347335977
 H        -5.9206322659        5.3912635905        1.0778164717
 H        -8.0967865954        4.9744922527        1.9601825232
 H        -6.9516456039        3.7064165248        2.1333601386
 H       -10.5193575661        4.8985517612        3.9586662679
 H       -11.5988690963        3.5497412912        3.9423007458
 H       -13.3024829978        5.0625615157        3.1651594892
 H       -12.0117747389        6.4500918172        3.2704597592
 H       -14.0609293864        2.8469917026        4.0281450567
 H       -15.6352488311        2.6699104642        4.5950702055
 H       -13.7378248309        1.6134276889        6.4919007490
 H       -13.6782753807        1.0438496298        4.7941242893
 H       -15.9588823788       -2.4174245938        2.5088076379
 H       -15.5969648178       -1.0420861043        1.7033576234
 H       -16.6232050274       -1.1075027662        3.0923110022
 H       -13.0054305364       -2.2248454411        5.5889154304
 H       -13.4632623050       -1.0915804323        6.7342379472
 H       -12.4608793880       -0.8488857985        5.2830614097
 H       -16.8329207029       -2.0026810369        5.5152500718
 H       -15.5958812338       -2.5275206241        6.5632142979
 H       -15.5420988378       -3.1598755909        5.0199124635
 H       -14.0923673710        7.4213407000        7.1921883560
 H       -13.2736864436        5.9397952706        7.5362702266
 H       -14.8895651247        5.8801673350        7.6280593288
 H       -16.3074199140        5.9834461646        4.5121631202
 H       -15.0243494270        5.8408475176        3.5315784083
 H       -15.1368203500        7.3953529528        4.4558277774
 H       -10.3291329326        1.4247526441        0.6680018216
 H       -11.5141885331        1.7649599141        2.0272597414
 H       -10.1540156434        0.8996558189        2.3345433476
 H        -8.1598649181        1.8850474038        3.1081660617
 H        -9.5113521346        2.1288298897        4.1467558232
 H        -8.5099257676        3.4769518540        3.8795284436
 H        -3.5130984013        3.3197119685       -1.8097435311
 H        -3.4963137009        4.5049710705       -3.1622096248
 H        -4.6538078338        3.0294231984       -3.1148142764
 H        -3.5730287183        6.3718056604       -2.0988641765
 H        -3.2808588302        5.5391803744       -0.6408623941
 H        -4.6168510515        6.6374761501       -0.6968444389
 H        -3.7538113601        5.6251319201       -7.6315022751
 H        -5.0287181693        5.3985829175       -8.7138318992
 H        -4.6970415533        4.0810029116       -7.5489830740
 H        -6.6219715998        6.9802564741       -8.4274067560
 H        -5.3689129504        8.0968228269       -7.7175289699
 H        -6.8000591597        7.7900170190       -6.8129696158
 H       -10.0372069706        1.3646146415       -3.0467769553
 H        -8.8456593317        0.7306195377       -3.9056916625
 H       -10.4767891204        0.1603743177       -4.0902470207
 H       -11.1258725612        2.3167521443       -7.0723888020
 H       -11.9919286295        1.3683298186       -5.8087608793
 H       -10.5174019492        0.6782056832       -6.6514451561
 Na       -7.8249115273        2.6151784185       -2.4846887341
