117

 C       -11.5327983412        3.7880027329       -4.8618068634
 C       -10.4479694162        2.9153426149       -4.4294874566
 O        -9.9160500679        3.0685563231       -3.3383128968
 C        -9.9797031322        1.6400330742       -5.3192932541
 C        -8.6178551320        2.0447570459       -5.7263816598
 O        -7.6801318010        1.7523126347       -4.9993587213
 C        -8.4231015809        2.9816350568       -7.0191478361
 C        -6.9289724158        3.6204876825       -7.1867933373
 C        -6.9269809595        5.1522326016       -6.6937382495
 O        -7.9024126941        5.5106143998       -6.0554889855
 C        -5.5799663447        5.9197443684       -6.6857835727
 C        -4.6924537762        5.8845699095       -5.4357622655
 O        -3.8480450651        5.0419846706       -5.3955991549
 C        -4.8781686922        6.8554936062       -4.2727239990
 C        -6.0592346600        6.6116912729       -3.3002313266
 C        -6.1656863718        5.1705200289       -2.8830258557
 O        -7.1282444315        4.5104933804       -3.0259569151
 C        -5.0758247913        4.3427049383       -1.9528677639
 C        -5.7886756504        4.0061566835       -0.5533017710
 O        -5.4955696895        3.0521959967        0.0602953209
 C        -6.8457313893        4.8202769024       -0.0167389001
 C        -7.4596363564        4.2987372077        1.2971065773
 C        -8.6016744002        3.3328367951        0.9880986399
 O        -8.8648494554        2.7974360906       -0.0807667425
 C        -9.7932226941        3.0473707453        2.0814042820
 C       -10.7056112447        4.2379310666        2.1521738522
 O       -10.8378375497        5.1265662968        1.3354212044
 C       -11.5633414426        4.2815279819        3.5191741003
 C       -12.4597028634        5.5330140762        3.5632182212
 C       -12.8352571701        5.8379084828        5.0326312618
 O       -12.0323264085        6.4629688818        5.6742682913
 C       -14.2043895218        5.7437473552        5.5747142693
 C       -14.1535240718        4.3749089066        6.2943928535
 O       -13.4204097136        4.2578090165        7.2312129224
 C       -14.9917949050        3.1703486588        5.8534582460
 C       -14.2741151750        1.8556538044        5.7803178323
 C       -15.3209526225        0.7443396304        5.6232443886
 O       -16.4777757619        0.9587864909        5.6693967622
 C       -14.8527031379       -0.7496054274        5.2901557276
 C       -14.8792981826       -0.6821929187        3.7860810981
 O       -14.0187677243       -0.1882255711        3.0702292026
 C       -16.0344748768       -1.2722463725        2.9494456135
 C       -13.4624002787       -1.0696430205        5.6213171449
 C       -15.8486974879       -1.7430515874        6.0060958864
 C       -14.4535243337        6.8807539712        6.6452740555
 C       -15.2449855583        5.9258662687        4.4626933019
 C       -10.5544530659        1.7303886434        1.6159859240
 C        -8.9654551602        2.6904319217        3.4179611881
 C        -4.5774741612        3.0833275299       -2.6907144430
 C        -3.7141887110        5.0386817734       -1.6663966791
 C        -4.7294389696        5.5089258529       -7.8705143104
 C        -6.0421089830        7.3691290991       -6.9342282138
 C        -9.8398217693        0.4236996504       -4.3365865347
 C       -10.9669641741        1.3516806251       -6.4392539692
 H       -12.3717891066        3.4236642656       -5.3370956645
 H       -11.2001776058        4.5532450586       -5.5641416257
 H       -11.8876147852        4.2672715875       -3.8683111928
 H        -9.0115507037        3.8291815185       -6.7472447097
 H        -8.8390263047        2.4444550921       -8.0120547173
 H        -6.6326417941        3.6785252692       -8.2297742772
 H        -6.1529692553        3.0193524824       -6.6604052141
 H        -5.0253955879        7.7422610012       -4.7836675757
 H        -3.9275692935        7.0646134284       -3.6914226166
 H        -6.9525893684        6.8620337674       -3.8940036814
 H        -5.9613352664        7.2662065875       -2.4272508061
 H        -7.6296928400        4.9848010053       -0.7374406407
 H        -6.4537130333        5.8569507644        0.1743027964
 H        -7.6567357806        4.9757826183        2.0241917188
 H        -6.5948352612        3.6111189267        1.6317011452
 H       -10.9381095327        4.2956481226        4.3563274863
 H       -12.2206764816        3.4188678387        3.4898324106
 H       -13.2698889015        5.1696370682        3.0356589726
 H       -11.8460959773        6.4134171574        3.2179512157
 H       -15.5329056504        3.2657868552        4.9573970416
 H       -15.7542085003        3.1556668339        6.6189603105
 H       -13.6030278869        1.7371809175        6.6816694734
 H       -13.6858920308        1.9783164165        4.8531181937
 H       -17.0138733346       -1.6454934629        3.2027132198
 H       -15.7908949579       -1.8815113508        2.0910641295
 H       -16.3084099422       -0.3459043809        2.4214739947
 H       -13.1264202283       -2.0699836425        5.2872864176
 H       -13.3446484392       -0.9601754421        6.6592517487
 H       -12.8203806744       -0.3765643525        5.1661094815
 H       -16.8237651600       -1.2898584497        5.8797450083
 H       -15.6618860354       -1.8671409593        7.0124251285
 H       -15.8213874654       -2.7823195271        5.6147850126
 H       -14.5784095405        7.8498893657        6.0839034910
 H       -13.5724228898        7.2594263753        7.2046365504
 H       -15.3575089313        6.6974845772        7.1817554123
 H       -16.2497222397        5.4978532721        4.5943468315
 H       -14.7886441555        5.6889924722        3.5342539678
 H       -15.5323149661        6.9853281247        4.3645306475
 H       -11.4000985315        2.0656378333        0.9839332784
 H       -10.8464191105        1.3996942379        2.5080122743
 H        -9.7955096715        1.2144565413        1.0955990590
 H        -8.3146361500        1.8144617946        3.1739181165
 H        -9.4514746867        2.3329113230        4.3760077673
 H        -8.5868355966        3.6726378314        3.7782254085
 H        -4.0271824133        2.4752820064       -1.8948179298
 H        -4.0623633721        3.3546736699       -3.6702647445
 H        -5.3278642574        2.3491378089       -3.0163559372
 H        -3.0236793009        5.1961209485       -2.4511327220
 H        -3.2125010901        4.3922057929       -0.8638631278
 H        -3.7036736691        6.0052660502       -1.1868640306
 H        -4.3491401792        6.4759076677       -8.1563496199
 H        -5.3137069600        5.1535949809       -8.6585709444
 H        -3.9233562808        4.9190997742       -7.4543292948
 H        -6.5379185633        7.4510654680       -7.9535517567
 H        -5.1707321096        8.0976906838       -6.9937563143
 H        -6.8060835753        7.6017404345       -6.2708446833
 H       -10.6071830423       -0.3759202097       -4.4977179289
 H       -10.1258522181        0.8864960417       -3.4090156276
 H        -8.7981402124        0.0056436861       -4.3599731379
 H       -10.5566956723        0.6559833261       -7.1711549321
 H       -10.9713731307        2.2467697094       -7.0403557494
 H       -11.9291875397        1.0045988038       -6.0811779198
 Na       -7.8054243565        2.3708180546       -2.2269508509
