117

 C       -11.3863957429        3.4901120473       -5.0783679817
 C       -10.5273148372        2.4054510232       -4.4547060102
 O       -10.5821048094        2.3516536622       -3.1983767245
 C        -9.6483662082        1.3801934150       -5.3971086572
 C        -8.1322111474        1.9086984356       -5.4379110579
 O        -7.5184613469        1.7088027839       -4.4035122729
 C        -7.6209920302        2.6799980891       -6.6774790797
 C        -6.3908046794        3.4596239595       -6.4708962852
 C        -6.7954576787        5.0143371496       -6.5616302274
 O        -7.9589578262        5.3985693933       -6.4449555030
 C        -5.7321479578        6.0664732397       -6.7246557066
 C        -4.6464743067        5.6141453468       -5.4715892067
 O        -4.0642898449        4.5685488843       -5.6886353972
 C        -4.5303342462        6.4853739251       -4.1873571334
 C        -5.7381790302        6.0881588730       -3.2711029512
 C        -6.0788591865        4.6290112591       -2.8997486882
 O        -7.0506183256        4.0773267349       -3.3820477253
 C        -5.1164398668        3.8216251994       -2.0341655477
 C        -5.9692149888        3.5728132182       -0.6676245413
 O        -5.7767382105        2.5805107827        0.0726684367
 C        -6.9322112577        4.7813837085       -0.3134949545
 C        -7.5993918627        4.4027465384        0.9908676580
 C        -8.6441338470        3.2942844543        0.7270566392
 O        -8.5661467455        2.5260816792       -0.2238748885
 C        -9.7024129622        3.1232957373        1.8941770833
 C       -10.4774871727        4.5716297739        2.3892865433
 O       -10.2261110312        5.5999844436        1.7126428178
 C       -11.2471270875        4.4752967053        3.6955335670
 C       -12.5269003641        5.3693385112        3.4995522968
 C       -12.9298921056        6.2561859677        4.6644453357
 O       -12.2751614696        7.2298723050        4.8794183138
 C       -14.2642696995        5.9990294337        5.5183635240
 C       -14.0357578868        4.7037316244        6.2472571296
 O       -13.0574944245        4.4785551497        6.9475256120
 C       -15.0953342976        3.5325571479        6.3500196656
 C       -14.4964128298        2.1868579000        6.3082417231
 C       -15.5659977062        1.2262884074        5.8016339664
 O       -16.7367381633        1.5588589851        5.5591632424
 C       -15.0074138633       -0.2372599603        5.4794924298
 C       -15.1500542620       -0.4108752593        3.8317564068
 O       -14.1194529050       -0.2142337374        3.1745285240
 C       -16.3446028270       -0.8099681571        3.1851419060
 C       -13.3876314020       -0.3702620669        5.8562870716
 C       -15.9024852751       -1.2652168551        6.2417798515
 C       -14.4744022232        7.1376573591        6.6138835340
 C       -15.5324757971        5.9762348091        4.7186818314
 C       -10.8685619338        2.0787588246        1.5858831986
 C        -8.9463346046        2.7216987478        3.1489422536
 C        -4.8089943429        2.4281926845       -2.6226339943
 C        -3.6866735496        4.4522405205       -1.6644575673
 C        -4.8837533866        5.7867805127       -8.0046398031
 C        -6.2605904576        7.4689082099       -6.7583591035
 C        -9.7236642787       -0.0522501916       -4.7103228899
 C       -10.2630980662        1.3671809517       -6.7875112639
 H       -11.5442668935        3.5890090573       -6.1953619910
 H       -10.9445777531        4.4517408998       -4.8620900789
 H       -12.3618132464        3.4154031810       -4.6832948683
 H        -8.4743472830        3.3849431932       -7.0519939842
 H        -7.4646438354        1.9218545902       -7.4311589781
 H        -5.5337758699        3.1663486492       -7.1078746487
 H        -6.1154298574        3.3861232616       -5.4286253433
 H        -4.7630850931        7.5723401851       -4.4671684240
 H        -3.6095185355        6.4391567250       -3.7319971838
 H        -6.5891505455        6.7335669028       -3.5025663584
 H        -5.4262809129        6.5869313434       -2.3617687574
 H        -7.6693825654        4.8874365202       -1.1422188998
 H        -6.5958276931        5.7525387476       -0.2851194677
 H        -8.1416440209        5.2892933340        1.5541650607
 H        -6.8195298897        4.1013356983        1.5818414017
 H       -10.5817268946        4.9092413487        4.4028619685
 H       -11.4619359297        3.4797218077        4.0302418849
 H       -13.2710345970        4.5964012750        3.1575005143
 H       -12.4129469445        6.0244966898        2.6061459978
 H       -15.9600483806        3.5612949807        5.6985187181
 H       -15.5434251172        3.5712944623        7.2837324425
 H       -14.0677366939        1.8575716131        7.2563301894
 H       -13.6069818736        2.0362980880        5.6486599761
 H       -17.1631992854       -0.1066563920        3.2431581876
 H       -16.8256094492       -1.6087869990        3.7336638111
 H       -16.2932200515       -1.1655123210        2.1849051992
 H       -13.2565544639       -1.3845359252        5.9991280475
 H       -13.0779256733        0.0543084694        6.7528716400
 H       -12.7519412990        0.0923640912        5.1960119819
 H       -16.6911149256       -1.7383342961        5.7127077378
 H       -16.2635089012       -0.9723379707        7.2771548734
 H       -15.1831860910       -2.0541165994        6.3679262057
 H       -14.7977745273        7.9618147693        5.9800964144
 H       -13.5690163161        7.4682431819        7.0896520471
 H       -15.4019774163        7.1186101992        7.2731551093
 H       -16.4234638838        5.8218767013        5.2748585244
 H       -15.5687994847        5.2538633027        3.8705367747
 H       -15.4215755403        6.9706402163        4.2769822678
 H       -11.3974156293        2.5645228362        0.8864700426
 H       -11.4890115594        1.9237058120        2.5138688567
 H       -10.3281377320        1.2778855143        1.1823930414
 H        -8.4437024076        1.7004484847        2.9758544976
 H        -9.6714533111        2.4574843971        3.9877873075
 H        -8.0727266491        3.3733950530        3.4703323733
 H        -4.2873616057        1.8023389479       -1.8638367800
 H        -4.3276186878        2.3929661069       -3.6225139979
 H        -5.7956585267        1.9928400516       -3.0203657628
 H        -3.1174362352        4.5155268482       -2.6599944731
 H        -3.0877885162        3.7978556055       -1.1072686045
 H        -3.6097743622        5.4733488241       -1.2576701760
 H        -4.2476464442        6.6430315187       -8.1219286828
 H        -5.5973723528        5.6064747026       -8.8158622505
 H        -4.2981872955        4.9178562623       -7.8398707013
 H        -6.8089933876        7.6191032153       -7.6887937898
 H        -5.4716272919        8.2118653660       -6.8977869594
 H        -7.0479499839        7.7152942371       -5.9531690251
 H        -8.7806686186       -0.5862442149       -4.7793746770
 H       -10.4778087195       -0.6879181644       -5.2710589606
 H       -10.2601562028        0.1327936209       -3.7845347759
 H       -11.3084416645        1.6190740646       -6.7595178511
 H       -10.1892802834        0.3846678921       -7.2461012237
 H        -9.7005387136        1.9809840914       -7.4759458375
 Na       -8.3792689985        2.6913276317       -2.2673329341
