117

 C       -11.2495396576        3.2053124904       -5.6554895803
 C       -10.5723010792        2.1166150299       -4.8636379646
 O       -10.4580719015        2.1052281883       -3.6656596179
 C        -9.7343108810        1.0598140181       -5.6194422349
 C        -8.2326150536        1.6331810183       -5.5151407174
 O        -7.6178205380        1.6098149428       -4.4703921226
 C        -7.5568061491        2.1647641129       -6.8264656580
 C        -6.4169693476        3.1462557210       -6.5032965859
 C        -6.7866674682        4.5267838721       -6.6100629388
 O        -7.9051304639        4.8961826436       -6.8093136533
 C        -5.6445494637        5.6549704842       -6.4565328028
 C        -4.4790640626        5.3518797423       -5.5698746511
 O        -3.7077805799        4.4798646175       -5.9916806882
 C        -4.0564817641        6.0280962283       -4.1504868573
 C        -5.1968943004        6.0430113233       -3.1336067141
 C        -5.7274345217        4.5958097515       -2.7562355440
 O        -6.8556066042        4.2985797411       -3.2123665025
 C        -5.0041311971        3.5973795389       -1.9360130603
 C        -5.9971276566        3.2239520411       -0.6972995815
 O        -6.3579449477        2.1546011255       -0.4112412921
 C        -6.6772633748        4.5178524074        0.0874650476
 C        -7.6077683953        4.1959925940        1.2725804050
 C        -8.9880554373        3.5005246544        0.9486024336
 O        -9.2167847190        3.1266075727       -0.1974277452
 C        -9.8972705678        3.3167441381        2.2065928566
 C       -10.3773100838        4.6684751797        2.5297730302
 O       -10.2019776184        5.4740617128        1.6529850290
 C       -10.9104925920        4.9946650718        3.8664799097
 C       -12.3904524275        5.3666093275        3.5750921237
 C       -12.9554351578        6.6261020241        4.4456226226
 O       -12.5785158384        7.7511827164        4.1683933971
 C       -14.2673651265        6.4096312539        5.4534722029
 C       -13.9687058720        4.9787067064        5.9663912022
 O       -12.8602372723        4.5681321874        6.0178208476
 C       -15.1331237470        4.1176219733        6.5435721735
 C       -14.6732397726        2.6833048079        6.8484576524
 C       -15.5837519811        1.5858609372        6.2081811775
 O       -16.5881149013        2.0335269456        5.7960425683
 C       -15.1378958762       -0.0032397460        5.6877145439
 C       -15.2389759433       -0.1001775714        4.1198129091
 O       -14.2245591336       -0.1383736215        3.4569882111
 C       -16.7004629599       -0.3021785706        3.3785117147
 C       -13.6340943920       -0.2742421401        6.1567293967
 C       -16.0924209837       -1.1461478707        6.2626221099
 C       -14.0713013829        7.6701010703        6.3777614905
 C       -15.6544120383        6.3909654163        4.7167614009
 C       -11.1148638259        2.3911693715        1.8776550453
 C        -8.9795912237        2.7676574804        3.3573842338
 C        -4.8708261091        2.4642389747       -2.9021249538
 C        -3.7538993104        4.2493490846       -1.2973749005
 C        -5.0628588592        5.7114920710       -7.9745424657
 C        -6.3205809253        7.0641611073       -6.1956204839
 C        -9.7703070096       -0.2811164689       -4.7709395779
 C       -10.2277890265        0.6670069932       -7.0692715875
 H       -10.5122395268        3.9161917574       -5.9344632078
 H       -12.1249763154        3.6175685546       -5.2179819874
 H       -11.5559392504        2.8432200030       -6.6442971595
 H        -8.3586080102        2.6059966145       -7.4892065275
 H        -7.1535956232        1.4190427793       -7.5052991464
 H        -5.4924895618        2.9218749709       -7.0146707650
 H        -6.2286143258        3.1077235290       -5.4319465955
 H        -3.7442607501        7.0071165165       -4.3923085906
 H        -3.1492221365        5.4340327979       -3.7518459536
 H        -6.0566696059        6.6447321851       -3.3554943360
 H        -4.7882631273        6.5919276021       -2.2812143334
 H        -7.2057108525        5.1830394240       -0.4484911075
 H        -5.8192107939        5.0866572335        0.3717226867
 H        -7.8644669279        5.1056467924        1.7829178939
 H        -7.0291988095        3.4645672938        2.0209533313
 H       -10.4758904599        5.8381791649        4.2857370971
 H       -10.8653746308        4.3654643240        4.6724380700
 H       -13.0171006932        4.4227210701        3.7474652629
 H       -12.6716312638        5.4055311698        2.5499088321
 H       -15.8987824875        4.1287058533        5.8318558119
 H       -15.6500304045        4.4179630522        7.4311958439
 H       -14.8368129604        2.5920685071        7.9311873937
 H       -13.6450926910        2.4186470422        6.7272091285
 H       -17.5955281640        0.2409490349        3.6242079335
 H       -17.1657096145       -1.2687283014        3.6142780240
 H       -16.4635933458       -0.4212185750        2.3466917111
 H       -13.4656863564       -1.3568199370        6.2039711849
 H       -13.5230346876        0.1530229204        7.0840431515
 H       -12.8468730746        0.0267088505        5.4853728131
 H       -15.5744761040       -2.1532217336        6.2494499250
 H       -16.9287257214       -1.1041231079        5.6382260999
 H       -16.3877465698       -1.0048132842        7.2937170313
 H       -13.7239204479        8.5275374164        5.7190352358
 H       -13.4056216562        7.4377104346        7.2450413226
 H       -14.9296347952        7.9726204437        6.9064366389
 H       -16.3871257297        6.4289123648        5.5912164486
 H       -15.8767578740        5.4410338759        4.3472402388
 H       -15.7923091658        7.1938398726        4.0257767147
 H       -11.1719282829        2.2992921972        0.7706071486
 H       -11.8622329431        2.8603487666        2.3571381632
 H       -10.9725517317        1.5130610379        2.4236067933
 H        -8.4712846503        1.7687540318        3.1534654443
 H        -9.6008125088        2.7179114988        4.3127619452
 H        -8.0541674704        3.3678425814        3.6110568625
 H        -4.6330905096        1.5022881925       -2.3400836699
 H        -3.8607732665        2.4987677849       -3.3900262055
 H        -5.7461441409        2.2694182646       -3.5257866629
 H        -3.0338784994        3.9839869039       -2.0165176947
 H        -3.3636156754        3.6536490922       -0.3995816185
 H        -3.6948761618        5.3189254863       -1.0552233269
 H        -4.0781312146        6.2136430887       -8.0490321828
 H        -5.7834951262        6.1604420904       -8.6034022541
 H        -4.9929198955        4.6618411060       -8.1986085970
 H        -7.2493588697        7.2111680482       -6.8364306201
 H        -5.6440140498        7.9438110726       -6.3044797713
 H        -6.5871053460        7.2172091697       -5.1897458210
 H        -8.8256402861       -0.4985322583       -4.1618573463
 H        -9.9758078808       -1.0664499539       -5.4913053493
 H       -10.6073678249       -0.2594767330       -4.0222004094
 H       -11.1464051870        0.1076030035       -6.9783382124
 H        -9.4367010987        0.1557852764       -7.6075127893
 H       -10.4449258672        1.4961855909       -7.7177313724
 Na       -8.2077057860        2.5336510190       -2.2352362470
