117

 C       -11.3290113610        3.1355106554       -5.7359456330
 C       -10.4511251940        2.1726955813       -4.9121761858
 O       -10.5233309129        2.1897258525       -3.7057831418
 C        -9.5967549013        0.8795480093       -5.7095311607
 C        -8.2020621871        1.3996664379       -5.6573878173
 O        -7.6989942546        1.5574850921       -4.4917341545
 C        -7.5903030439        2.0902981657       -6.9090137058
 C        -6.2730197161        2.9354301844       -6.5182658697
 C        -6.8538027322        4.6093080901       -6.6572345989
 O        -8.0404125931        4.8428806113       -6.7628998293
 C        -5.7050357441        5.6212368025       -6.5797788335
 C        -4.4589448329        5.1387762876       -5.5681007733
 O        -3.6456878049        4.4121998183       -5.9776960480
 C        -4.0947241942        5.7880245402       -4.2072030116
 C        -5.1876316122        6.0374154704       -3.1800074318
 C        -5.8348059334        4.7011021646       -2.7445477149
 O        -6.9414645751        4.3892282787       -3.1895250199
 C        -5.0789465812        3.6302466224       -1.8666984430
 C        -6.1207090627        3.3003538337       -0.7546534488
 O        -6.5310568927        2.1541277246       -0.6147363483
 C        -6.5723681505        4.4505345731        0.0857906683
 C        -7.3665053943        3.8661125519        1.1767052740
 C        -8.7758670870        3.3708955035        0.9539482049
 O        -9.3352700924        3.1293184083       -0.1474923607
 C        -9.7638155903        3.2171088790        2.1327756455
 C       -10.2693381026        4.8260756142        2.4328293177
 O       -10.1523714572        5.7091049665        1.6206050212
 C       -11.0935173606        5.2001235216        3.7777656411
 C       -12.5514399502        5.5693897543        3.5178690717
 C       -13.1683617816        6.7654379890        4.3127840250
 O       -12.6169394043        7.8426793655        4.0976728360
 C       -14.2049524773        6.4493523546        5.3661943854
 C       -13.9548925482        4.9555724616        6.1139964016
 O       -12.8327464537        4.5443594172        6.0424355065
 C       -15.1326573575        4.1831263107        6.5832040425
 C       -14.5708491909        2.7375497415        6.9655520378
 C       -15.6041465125        1.5903546829        6.1368734768
 O       -16.7388106952        2.0022864356        5.8805256437
 C       -15.1932822846        0.1984110554        5.8313327332
 C       -15.3225051533       -0.0511479924        4.1290443748
 O       -14.2664772816       -0.0709646249        3.4957244641
 C       -16.4971132542       -0.2571554582        3.3750449446
 C       -13.6974792664       -0.1897528990        6.1734142915
 C       -16.2167921226       -0.8025845044        6.4042444865
 C       -14.0975888227        7.5813041384        6.4615434863
 C       -15.5979031269        6.5512931455        4.7507169909
 C       -10.9595089100        2.2970967033        1.7754261587
 C        -9.0833207585        2.6617690341        3.4688152386
 C        -4.6612772443        2.3839555944       -2.6403063333
 C        -3.6691063502        4.1138648742       -1.1444167793
 C        -4.9282757546        5.7209900048       -7.9312585237
 C        -6.4086347184        6.9467768199       -6.1237900494
 C        -9.6967192605       -0.2340356146       -4.6977741189
 C       -10.1095600060        0.5997398852       -7.1086864587
 H       -10.7265677708        4.0207174177       -6.1392796973
 H       -12.1581589882        3.3408296646       -5.1365381740
 H       -11.7662651699        2.8019738951       -6.6006408190
 H        -8.2781665376        2.5882206961       -7.4474429869
 H        -7.1814645515        1.3558096450       -7.6840723461
 H        -5.7071216794        2.7895021160       -7.3883541452
 H        -5.7400349637        2.6587331233       -5.6368076870
 H        -3.5594440691        6.7118855077       -4.4260034292
 H        -3.3575253344        5.0256083375       -3.7723677973
 H        -5.9930272450        6.7343266221       -3.3602310794
 H        -4.5793147238        6.4439048197       -2.3478416382
 H        -7.3002671370        5.0991849237       -0.3989673580
 H        -5.7075636558        5.0428717240        0.3211700523
 H        -7.5185385513        4.6121201340        1.9126291801
 H        -6.8916989386        2.9531700241        1.6671023360
 H       -10.7155936854        6.0859447956        4.1982688214
 H       -11.0729618228        4.6326414965        4.7257426240
 H       -13.1831589341        4.7206061145        3.5075183393
 H       -12.7158819920        5.7479390671        2.4306323850
 H       -15.9027298579        4.1734039446        5.8649001509
 H       -15.6199930902        4.6015470910        7.4813588020
 H       -14.5882979163        2.6078469507        8.0314425737
 H       -13.5985226763        2.5425408398        6.6941123076
 H       -17.2751472059        0.2007017768        4.0005930766
 H       -16.9349572951       -1.2383932002        3.3648330760
 H       -16.3896505713       -0.0110584498        2.3497110747
 H       -13.6695607948       -1.2925609245        6.3506896863
 H       -13.4405295267        0.3066542174        7.1018347763
 H       -13.0331026575       -0.1960763343        5.3229509511
 H       -15.7132458731       -1.7367250489        6.5016374307
 H       -17.0457633782       -0.8309935458        5.7688954128
 H       -16.5198022362       -0.5363608885        7.4342322676
 H       -13.9368418464        8.4731163821        5.9836062997
 H       -13.4422076784        7.4608514716        7.3381185746
 H       -15.0235326971        7.5512242089        6.9975706879
 H       -16.2474142053        6.0677143198        5.4835219934
 H       -15.6610755610        5.8617963611        3.8530847193
 H       -15.9668797201        7.6091330988        4.5976050098
 H       -10.8200883456        1.8387338610        0.8198580946
 H       -11.7857803973        3.0344661967        1.8772601967
 H       -11.1719670282        1.6727316385        2.6577570729
 H        -8.4742453087        1.7483028357        3.2285666569
 H        -9.7986480099        2.4195753683        4.2660429061
 H        -8.3189272863        3.2584882036        3.8798162283
 H        -4.2224701768        1.5742256520       -2.0388866680
 H        -3.6911301086        2.6482141298       -3.0698221831
 H        -5.3852319943        1.8844551283       -3.2928004163
 H        -3.0585908936        4.1260029720       -2.0866353486
 H        -3.1308642269        3.2328128222       -0.6689531531
 H        -3.5056590471        5.0076327222       -0.5110262243
 H        -3.9849835446        6.1081010874       -7.8205285820
 H        -5.5240592892        6.3671395568       -8.6533771939
 H        -4.8760707371        4.6612554982       -8.2456043176
 H        -7.2476859027        7.1533461952       -6.7907212183
 H        -5.7909720165        7.8611557789       -6.0091049984
 H        -6.7690496385        6.8768267346       -5.1427493106
 H        -9.0460367489       -0.0456692391       -3.9176147406
 H        -9.5552065301       -1.1808700588       -5.1417611152
 H       -10.6228853283       -0.2481862804       -4.2342462629
 H       -11.1908838868        0.8784323336       -7.1929813926
 H        -9.9163839830       -0.4426120120       -7.4514004476
 H        -9.6257575122        1.2220530805       -7.8581157465
 Na       -8.1650643085        2.5719384026       -2.1877711095
