117

 C       -11.4058719111        2.7695094611       -5.9584372187
 C       -10.3352183238        2.1594311290       -5.0806634257
 O       -10.2868463702        2.6298685469       -3.9645967153
 C        -9.4852962439        0.8171721755       -5.5198299955
 C        -8.0585304911        1.3610526246       -5.6085638636
 O        -7.5675661953        1.6782795545       -4.5375240734
 C        -7.4234640175        1.8640497333       -7.0743069621
 C        -6.2322736668        2.7749155428       -6.9363083282
 C        -6.7179335136        4.2837767262       -6.6204707072
 O        -7.8811009828        4.4500922899       -6.5489405978
 C        -5.6032636867        5.5210920092       -6.5904174286
 C        -4.3649155401        4.9123464948       -5.6819705575
 O        -3.9690042305        3.7918864659       -5.8956879088
 C        -3.9374042142        5.7311536104       -4.4683999059
 C        -4.9795260018        5.7305181414       -3.3735542177
 C        -5.6489559569        4.5251280056       -2.6750369176
 O        -6.8595136102        4.3237054008       -2.9385264639
 C        -4.9863963893        3.6026314903       -1.6880765809
 C        -6.0616681772        2.9312645095       -0.8157890974
 O        -6.8236412664        2.0047481057       -1.0205156850
 C        -6.3156828474        3.9210652221        0.4715685307
 C        -7.3271463609        3.2928250588        1.5524076521
 C        -8.8124114823        3.2052146352        1.0640953160
 O        -9.0268400988        3.2076710124       -0.1818576746
 C        -9.9661807158        3.2922082191        2.2134728801
 C       -10.3384522503        4.8550061497        2.2207484147
 O        -9.7764475088        5.6423711983        1.4866154674
 C       -11.3554504273        5.2468834180        3.4428836552
 C       -12.6776900333        6.0551825729        3.0689050638
 C       -13.1633245699        6.9702196186        4.2320910374
 O       -12.9462268037        8.1938214657        4.2587406819
 C       -14.1686819142        6.4383643907        5.3160112317
 C       -13.8379692539        5.0171814381        5.9790344146
 O       -12.7068705674        4.6927021497        6.0639790473
 C       -15.0407363067        4.3346475847        6.7240515006
 C       -14.6035003865        2.9346387761        6.6782066207
 C       -15.8091168535        1.8600846022        6.1841907989
 O       -16.8061727003        2.3561132096        5.6908579534
 C       -15.3432401185        0.3943015490        6.0141844669
 C       -15.3633141263        0.2523958863        4.4005441038
 O       -14.2392747195        0.3124127984        3.9019770530
 C       -16.5830016068        0.1055630695        3.6473933577
 C       -13.9292531381        0.1572351974        6.6417862403
 C       -16.3824432420       -0.6175169714        6.6363319981
 C       -13.9785235328        7.3197046618        6.6248216615
 C       -15.6646277121        6.5446072391        4.7026919738
 C       -11.2382928181        2.5243203725        1.7008344699
 C        -9.4437614241        3.0405172889        3.6533322872
 C        -4.4450670857        2.4705082179       -2.7100320439
 C        -3.6606003498        4.3643298507       -1.0753658094
 C        -5.1171007339        5.7186317417       -8.0012783578
 C        -6.2924742154        6.6913929223       -6.0120687501
 C        -9.5829460190       -0.2240748292       -4.4953615209
 C       -10.0213944875        0.3671589214       -6.9211522458
 H       -11.0465110320        3.0388948271       -6.9958190698
 H       -12.0228362340        3.4571592537       -5.4794527972
 H       -12.1879065443        2.0846685332       -6.1768189488
 H        -8.1540098333        2.2997493524       -7.7955125643
 H        -7.0644735343        0.9372849917       -7.6032786400
 H        -5.7127042014        2.9541340762       -7.8941262399
 H        -5.5422784532        2.3867451922       -6.1360420364
 H        -3.6772161734        6.6944592688       -4.7379097863
 H        -3.0199128008        5.1668033385       -4.0454375358
 H        -5.8377676583        6.3023481191       -3.6454431453
 H        -4.3829564261        6.1618771939       -2.5466030713
 H        -6.6469636999        4.7328692077       -0.0895782471
 H        -5.4625475141        4.2033441502        1.0836248101
 H        -7.2881298090        4.0361230458        2.3084990682
 H        -6.8798302754        2.2671058321        2.0004892092
 H       -10.7607422531        5.6372449216        4.2165111522
 H       -11.7731126679        4.4313530816        3.9854725257
 H       -13.4404909529        5.2155349287        2.9213931402
 H       -12.6253882084        6.3410860358        2.0119437321
 H       -15.8653043589        4.4413495457        6.0414466563
 H       -15.2158239450        4.8497892348        7.7063213933
 H       -14.3716398758        2.5473014305        7.7367950620
 H       -13.6306718596        2.8046205967        6.1593643813
 H       -17.4825916563        0.2335082655        4.2802790668
 H       -16.5966651746       -1.0091454672        3.4628820687
 H       -16.5273200691        0.4934003605        2.6397941385
 H       -13.5185618845       -0.8757889454        6.3469830399
 H       -14.0691596993        0.1008835860        7.6764910779
 H       -13.1927815729        0.7344912252        6.2147126701
 H       -16.1341743794       -1.6041600757        6.1243837439
 H       -17.4059363387       -0.3125705748        6.5646939464
 H       -16.1323735764       -0.6983388082        7.7377795378
 H       -14.1010834143        8.3741461673        6.3281482990
 H       -12.8382088304        7.3928316510        6.9430210833
 H       -14.4675744427        6.9659631838        7.5175917357
 H       -16.3923352561        6.4187767651        5.5127563388
 H       -15.7781547803        5.9808836362        3.8219644147
 H       -15.8340013007        7.5779128888        4.5503679355
 H       -11.2620207748        1.6201800495        2.2837406145
 H       -11.0119885422        2.2453567014        0.6841631550
 H       -12.1236541016        3.1640391428        1.7395980077
 H        -8.9679478416        1.9933829746        3.7544617223
 H       -10.2282389191        3.0294031807        4.4664295343
 H        -8.7326234327        3.8127082424        3.9343449340
 H        -3.8727633319        1.7713015122       -2.0286206872
 H        -3.7394335308        2.7916521766       -3.5255789580
 H        -5.1895645547        1.7826861140       -3.0534581184
 H        -3.0316120772        4.6078042579       -1.8902715443
 H        -3.1663982232        3.7116223488       -0.2904466805
 H        -3.9380132289        5.3009004804       -0.6655444289
 H        -4.8278719580        6.7148348961       -8.1253476140
 H        -5.9587339338        5.5396131092       -8.7229901006
 H        -4.2495639668        5.0405078022       -8.1728801022
 H        -6.9064244132        7.2856995621       -6.7623525853
 H        -5.5784776306        7.4405230885       -5.5637001244
 H        -6.9584484884        6.5217160038       -5.2473012377
 H       -10.0656385750        0.1285051986       -3.5191075492
 H        -8.5686292654       -0.7466054775       -4.2630185297
 H       -10.2616955237       -1.1111527475       -4.7116836394
 H        -9.4460927199        0.8507780359       -7.6853999995
 H       -11.0680477257        0.6008950654       -7.0852154808
 H        -9.8312194294       -0.6451994144       -7.1675158932
 Na       -8.5764407391        2.5122048799       -2.6088532065
