117

 C       -11.5124127791        2.6282099551       -6.1606833428
 C       -10.4505746253        2.1183970372       -5.1354514509
 O       -10.2904321286        2.6806709536       -4.0705137528
 C        -9.5094421935        1.0014201176       -5.5467542674
 C        -8.0472315080        1.5687616267       -5.6609596887
 O        -7.3390894652        1.7130696765       -4.6503994635
 C        -7.4092328245        1.7819521145       -7.0188677132
 C        -6.1991129992        2.7105854632       -7.0007918907
 C        -6.7014318419        4.2132630809       -6.6729783963
 O        -7.8602201796        4.4314256805       -6.4383727222
 C        -5.6918340158        5.2695561031       -6.5152711226
 C        -4.4821708470        4.7529860745       -5.6242193528
 O        -3.9490668640        3.7150872833       -5.8357546631
 C        -3.9547867194        5.5901182127       -4.4149869873
 C        -4.9813868728        5.8724026645       -3.2457804114
 C        -5.7424700242        4.4779145213       -2.7936059564
 O        -6.9281343927        4.3589333781       -3.1091492811
 C        -4.8586067152        3.4931033876       -1.7835203002
 C        -5.9319861996        2.9675796712       -0.7305333481
 O        -6.6423858258        2.0414619070       -1.0468890026
 C        -6.2125924205        3.6593584746        0.7624576656
 C        -7.3902758216        3.1992970824        1.5594724479
 C        -8.8563274135        3.2154995433        1.0441201970
 O        -9.2180116426        3.1091683856       -0.1584359713
 C        -9.9539194813        3.3580279485        2.2081660852
 C       -10.3731702677        4.9211521119        2.2356503680
 O        -9.8762587344        5.7687902733        1.5203996260
 C       -11.4326636854        5.2753778256        3.3326219355
 C       -12.5814481688        6.2095936494        3.0384160436
 C       -13.1954899000        7.0641087293        4.2127048182
 O       -12.8703416250        8.2218668743        4.2190785058
 C       -14.1167820815        6.6071435723        5.3567797817
 C       -13.8308316077        5.1217444422        5.9447790065
 O       -12.7228439800        4.6464849546        5.8595500210
 C       -14.9437891678        4.3213394355        6.5586131023
 C       -14.6317237307        2.8932610859        6.8526608223
 C       -15.7774327059        1.9068447351        6.2309549724
 O       -16.6643299664        2.4846987738        5.6262392775
 C       -15.4250199003        0.4288759104        6.1401946932
 C       -15.3220386105        0.3156927685        4.5457068014
 O       -14.2544346235        0.4401236027        4.0650203219
 C       -16.7187583522        0.1198030206        3.7093459320
 C       -14.0529663403        0.1284792450        6.7658011213
 C       -16.4298626276       -0.6849131837        6.5442237280
 C       -13.9914638146        7.5717546182        6.4695605234
 C       -15.6150443705        6.5272232934        4.8179324004
 C       -11.2920075651        2.5353263340        1.7451909343
 C        -9.6220968934        2.9918536848        3.6249366539
 C        -4.2347600244        2.4777967872       -2.7721324388
 C        -3.7371948882        4.1555294061       -1.0426543203
 C        -5.1400894362        5.5390510534       -8.0740294968
 C        -6.3411867353        6.5455199281       -6.1125561429
 C        -9.4979280565       -0.0583319588       -4.3477304082
 C       -10.0106018298        0.2451363449       -6.9430030202
 H       -11.1672259397        2.4356145325       -7.1654699019
 H       -11.8367238132        3.6178931321       -6.0028782852
 H       -12.4435897341        2.2201282144       -6.1425389818
 H        -8.0891309033        2.1065786304       -7.7213898239
 H        -7.1689680320        0.6693981503       -7.3537608776
 H        -5.7429177213        2.8819439080       -7.9554922880
 H        -5.4693466644        2.4131842914       -6.2557263728
 H        -3.7211346436        6.5772552481       -4.8929396167
 H        -2.9837416809        5.1323193282       -4.1914674732
 H        -5.7456517972        6.5539827490       -3.6171214396
 H        -4.4315203652        6.1706438596       -2.4119594848
 H        -6.2019635476        4.6682489271        0.4764708926
 H        -5.4959088160        3.4435233498        1.4783847431
 H        -7.3047949803        3.9608725648        2.3814445273
 H        -7.1948080890        2.2164145643        1.9870185534
 H       -10.7691171680        5.7767446379        3.9587700531
 H       -11.8357086834        4.5343096172        3.9865924619
 H       -13.3047681586        5.6651326808        2.4641995685
 H       -12.1427688904        6.7883093123        2.1587924579
 H       -15.8646985067        4.4843566239        6.0690642352
 H       -14.8410502032        4.8931851843        7.4709645204
 H       -14.2321649705        2.6927228865        7.8812428459
 H       -13.7726506700        2.6589760952        6.2454308821
 H       -17.4763863410        0.6009856571        4.3493423159
 H       -16.9970993900       -0.9059646730        3.5775956964
 H       -16.5197179981        0.5191792862        2.7087991871
 H       -13.7814937931       -0.8570723844        6.5079873695
 H       -14.0506242837        0.1132266220        7.8511108060
 H       -13.4392363035        0.7150828651        6.1505559159
 H       -16.0699917706       -1.4617978593        5.9446580042
 H       -17.4419432335       -0.3713359100        6.2248045184
 H       -16.4977431994       -0.9458931313        7.6269624660
 H       -14.0256737803        8.5651899451        6.1053022621
 H       -13.0368781553        7.5771003171        6.9245503737
 H       -14.7133469352        7.2548006395        7.2965991827
 H       -16.2009047546        6.7928972006        5.5900708352
 H       -15.7156737715        5.5671530184        4.2894004021
 H       -15.8193816684        7.3341812480        4.1529306704
 H       -11.7195064918        2.1027775466        2.5567779803
 H       -11.0980061459        1.7973668640        0.9500234918
 H       -11.9016164291        3.3817717191        1.3868455333
 H        -9.1340856058        1.9577994894        3.7432945464
 H       -10.4274900705        2.9741769651        4.4262362227
 H        -8.8958457910        3.7962088978        3.9558460516
 H        -3.6494941082        1.6743805205       -2.2058093278
 H        -3.5878731337        2.9392717622       -3.5832638153
 H        -5.0432575497        1.7737948895       -3.2366877973
 H        -2.7471153742        4.2148580892       -1.5608438582
 H        -3.7584842724        3.7146078973       -0.0678587654
 H        -4.0229015224        5.2077260160       -0.9503026770
 H        -4.8923553575        6.5783912089       -8.0422087449
 H        -6.0417162270        5.4571485174       -8.7191955825
 H        -4.2808243131        5.0178529301       -8.4291305994
 H        -7.0390407767        6.8550667753       -6.8591922149
 H        -5.6439057821        7.3977720547       -5.9544648233
 H        -7.0053764470        6.5799219970       -5.1925507500
 H        -9.8323402249        0.3843010868       -3.3872709442
 H        -8.4824076470       -0.5430366463       -4.2088738180
 H       -10.1973236343       -0.9312228394       -4.4207382953
 H        -9.3224823935        0.1383139206       -7.7479131320
 H       -10.9424924861        0.5953767608       -7.3088966328
 H       -10.0323785516       -0.7760104526       -6.6859521478
 Na       -8.4558478337        2.5719052600       -2.4795103092
