117

 C       -10.9960332676        2.3866352177       -6.2794148556
 C       -10.2186321167        2.1584870728       -5.0188038636
 O       -10.1724959323        2.9677223059       -4.1120640140
 C        -9.4013700220        0.7999605769       -4.9156170677
 C        -8.0110709746        1.1272475751       -5.2667362095
 O        -7.1335991083        1.1554185846       -4.4033646419
 C        -7.5947628698        1.3903034911       -6.7728595056
 C        -6.3045021085        2.2715569288       -6.8001075819
 C        -6.7578864120        3.7211982995       -6.7186037994
 O        -7.9334628724        4.0485538976       -6.7659801790
 C        -5.6264153442        4.8110898084       -6.5365434010
 C        -4.7673663268        4.4402909256       -5.3802195790
 O        -4.5082968871        3.2770949138       -5.1593901746
 C        -4.1103234604        5.3682974388       -4.3551234945
 C        -4.9054392655        5.7157319671       -3.0628393434
 C        -5.6967709177        4.4262079385       -2.5497380392
 O        -6.9248066840        4.4233891617       -2.7042635215
 C        -4.9882193534        3.3549245073       -1.6676491278
 C        -6.1491965432        2.6849139587       -0.9341066023
 O        -6.6985267935        1.8069086808       -1.4794165894
 C        -6.4536525916        3.1818377005        0.4134012992
 C        -7.6928425158        2.8571226893        1.1369838308
 C        -9.1324017602        3.2960871863        0.6215480732
 O        -9.2947102695        3.4979440107       -0.5835033579
 C       -10.3929766280        3.3118432539        1.5513886202
 C       -10.6008056229        4.8618303805        1.7419280449
 O        -9.9772058379        5.5974710718        1.0240314553
 C       -11.3667918919        5.3919448996        2.9443522732
 C       -12.2564411632        6.6616637990        2.7730793251
 C       -12.6121132846        7.4408790576        4.0788328381
 O       -11.9058506713        8.2664255718        4.5113508629
 C       -13.9343612682        6.9117315968        5.0161658172
 C       -13.5413020062        5.5551686228        5.6798877813
 O       -12.5438162400        4.9204077308        5.3215115279
 C       -14.5493212571        5.0981198110        6.6543864047
 C       -14.6743541201        3.5038817807        6.7615425103
 C       -15.8797262184        2.6053781089        6.3428385546
 O       -17.0021730816        3.0460420759        6.1301966492
 C       -15.6286778288        0.9664702573        6.3894695128
 C       -15.1923943555        0.5839402376        4.9440259312
 O       -14.0132971186        0.6243351244        4.5246050709
 C       -16.4343296839        0.4837607544        3.8850143349
 C       -14.7283828747        0.5753455623        7.4550281546
 C       -17.0824664075        0.3101725167        6.7245352342
 C       -14.1213840401        7.9545093958        6.0930540705
 C       -15.1783444391        6.5975395276        4.0793364372
 C       -11.6621414693        2.6612304302        0.8219435135
 C        -9.9442069999        2.3786086359        2.7982767659
 C        -4.2552811056        2.2008854543       -2.5924257114
 C        -3.9757289532        4.1178646273       -0.7256961093
 C        -4.6591793135        4.6285062309       -7.8060404257
 C        -6.0987219983        6.2423265103       -6.5089426781
 C        -9.4857865364        0.2409134325       -3.4853724437
 C        -9.8961844088       -0.4175357238       -5.8611226569
 H       -10.4244459837        2.6977313740       -7.1606748178
 H       -11.7975656014        3.2435493163       -6.1510378496
 H       -11.5970094335        1.4734851737       -6.6181964077
 H        -8.2624054290        1.9682965831       -7.3325299115
 H        -7.3076130945        0.4258638921       -7.3655732195
 H        -5.7709336814        2.1716823414       -7.7364772907
 H        -5.6222859062        1.9230118634       -5.9795573654
 H        -3.9206693651        6.2622399257       -4.9144877940
 H        -3.0924389159        4.9758645990       -4.1135305606
 H        -5.7624865196        6.4169323687       -3.3199603623
 H        -4.2488166927        6.3320103949       -2.4083795602
 H        -6.2607610318        4.2904106682        0.2247178104
 H        -5.6332316276        2.6932695738        1.0281670712
 H        -7.6613024504        3.0627388157        2.2734545193
 H        -7.6269148198        1.7223911304        1.2399881251
 H       -10.5841866027        5.7550041497        3.6711638793
 H       -12.0851795126        4.7359230259        3.5195774650
 H       -13.1415430299        6.3822890284        2.2519303366
 H       -11.5661174901        7.4048089393        2.2528740997
 H       -15.4704689003        5.6578646232        6.6819671197
 H       -13.9655541597        5.3078175305        7.6212657884
 H       -14.2884025799        3.1891882465        7.7627718721
 H       -14.1163962241        3.1433111150        5.8911180109
 H       -17.0599179392        1.3755538892        3.9484005849
 H       -16.6564598698       -0.5646097372        4.0383261678
 H       -15.8286670765        0.5750163145        2.9812821509
 H       -14.8066247129       -0.4685484971        7.3276575419
 H       -15.0200112686        1.0885911505        8.4699941362
 H       -13.6646410543        0.9479648457        7.2780780331
 H       -16.9558322054       -0.6911106596        6.5125338317
 H       -17.8447462250        0.6180923057        6.0184928010
 H       -17.2896475299        0.3518357482        7.7901970775
 H       -14.0333648655        8.9264263864        5.6483105779
 H       -13.4953702519        7.7134343601        6.8765471043
 H       -15.2170587046        7.9796149073        6.4210312492
 H       -16.0152789761        6.2407423137        4.6322080122
 H       -14.8383796534        5.6237799722        3.5116386165
 H       -15.2885547767        7.4051023469        3.3020356743
 H       -11.4617502670        1.6007288045        0.9856463748
 H       -11.8287391850        2.9606677069       -0.2870526634
 H       -12.7055014730        2.8475518537        1.2732903642
 H        -9.5856363768        1.4292191111        2.6970473849
 H       -10.7803310998        2.3707332976        3.4097240619
 H        -9.1393290282        2.8848175494        3.3045554215
 H        -3.9527645107        1.4563603956       -1.8889289290
 H        -3.4731847295        2.5290081237       -3.2205110730
 H        -4.9532947305        1.7601976258       -3.3312133362
 H        -2.9632784660        4.1354375911       -1.1723845609
 H        -3.9432795062        3.5346166866        0.1893613324
 H        -4.4996592656        5.0455276467       -0.4741049812
 H        -3.8861664293        5.4041461974       -7.7928370360
 H        -5.3299252247        4.8236281308       -8.7142383248
 H        -4.2163446020        3.6249626416       -7.9015100813
 H        -6.9120778729        6.4537775553       -7.1209977686
 H        -5.3640484296        6.9106121083       -6.8847970153
 H        -6.4554949483        6.7142094695       -5.5412064834
 H        -8.6784375758       -0.2828375435       -3.1288903443
 H       -10.2971964183       -0.4013591875       -3.3314605893
 H        -9.7640565194        1.0472961632       -2.8901902845
 H        -8.9523262238       -0.9683153600       -5.9714786601
 H       -10.1456622800       -0.1229999442       -6.8978755556
 H       -10.7365371269       -0.9802616693       -5.4587901208
 Na       -8.3691642993        2.7485152553       -2.4475016329
