117

 C       -10.9636389475        2.4573834331       -6.1938014132
 C       -10.2665801866        2.0790093365       -4.9507635527
 O       -10.1208794505        2.8677890387       -4.0834456540
 C        -9.4322312236        0.6765905448       -4.8756643014
 C        -7.9065533149        0.9671601980       -5.1371735692
 O        -7.0409859542        1.1111390238       -4.2702996468
 C        -7.6443999544        1.2197936144       -6.6111646859
 C        -6.5051602203        2.2276650744       -6.7285466550
 C        -6.8219979234        3.7166845453       -6.7370792293
 O        -7.9795093209        4.1468158436       -6.8510520137
 C        -5.5806332370        4.7474119144       -6.5938050464
 C        -4.7031417010        4.3349548733       -5.2985935069
 O        -4.4236268329        3.1430171887       -5.0398537774
 C        -4.0169550392        5.3809547672       -4.3365754966
 C        -4.8818616683        5.6913790326       -3.1472290558
 C        -5.7020354708        4.5592260177       -2.7189338693
 O        -6.8786724896        4.5276586063       -2.8054575851
 C        -5.0326170185        3.3794282894       -1.7444813569
 C        -6.1664001498        2.6766542617       -0.9350767548
 O        -6.7834946293        1.6855592179       -1.2869059130
 C        -6.3955537591        3.2942856460        0.5384268461
 C        -7.7887426187        2.8066495100        1.1008192248
 C        -9.2252853661        3.1303658187        0.4762022746
 O        -9.3552724591        3.4728245218       -0.6836537450
 C       -10.3720387296        3.2499337909        1.4530625304
 C       -10.5975938790        4.8881768993        1.7535131655
 O       -10.1590648328        5.7066675060        0.9673708451
 C       -11.4435030263        5.3056210473        2.8949978345
 C       -12.1730298077        6.6061818184        2.6981460351
 C       -12.4919036934        7.2879373365        4.1269172599
 O       -11.7210468742        8.1665813917        4.4592736962
 C       -13.7491302329        6.9309860418        4.8893721024
 C       -13.5664815045        5.6373182221        5.7293213560
 O       -12.6318819846        4.9123477830        5.4336651477
 C       -14.6870136471        5.0512259171        6.7042285390
 C       -14.5157100635        3.4297706833        6.6401996813
 C       -15.9216090174        2.7252735379        6.4293915030
 O       -16.9813768636        3.1920460287        6.0358912625
 C       -15.7160251650        1.1159581084        6.4789176847
 C       -15.2030544345        0.8823989213        4.9921794901
 O       -14.0593554542        0.6648785485        4.8010344431
 C       -16.3396026253        0.5338928252        3.9133466824
 C       -14.7352145343        0.4795286537        7.5318875460
 C       -17.1204420966        0.4747315841        6.7257788032
 C       -14.1438560103        8.1339222701        5.9155570280
 C       -14.8246908183        6.5825368224        3.8516942029
 C       -11.7006578868        2.8095337208        0.7771313677
 C       -10.2473931901        2.4150045536        2.7118781431
 C        -4.0781577521        2.2986142934       -2.5069375836
 C        -3.9541029742        3.9770872810       -0.7870363354
 C        -4.6497316226        4.5233436109       -7.7724545120
 C        -6.1081798680        6.1895348704       -6.6132089945
 C        -9.6737834384        0.1581276451       -3.3612171215
 C        -9.8288484001       -0.3481000399       -5.9399172721
 H       -10.3724323143        2.9922402591       -6.9331627324
 H       -11.7382968770        3.1432695063       -5.9014266590
 H       -11.4913127521        1.5862330390       -6.7177223574
 H        -8.4950677314        1.7351084399       -7.0854109348
 H        -7.3754184867        0.2715038487       -7.1714412152
 H        -5.9321726458        2.1406070549       -7.6958023847
 H        -5.7927198030        1.9141187993       -5.9308194056
 H        -3.7450081367        6.3773404057       -4.8749278845
 H        -3.1125631094        4.9849572037       -4.0060276354
 H        -5.5946333688        6.5526625548       -3.3171016305
 H        -4.2683163595        6.0843806413       -2.3699105225
 H        -6.4391287495        4.3902063503        0.2131580317
 H        -5.6010612231        3.0251073810        1.2591153065
 H        -7.9586126454        3.1232517989        2.2403340316
 H        -7.6992154521        1.7297483208        1.3527057279
 H       -10.7542836173        5.4967715767        3.6851735102
 H       -12.2147368808        4.6891754128        3.2805435216
 H       -13.1017972728        6.3323633635        2.1547842775
 H       -11.4462464811        7.3750685383        2.2104185753
 H       -15.7721794108        5.2945588736        6.4719844294
 H       -14.4956179542        5.3332162542        7.7745764176
 H       -14.1301494650        3.0865420350        7.6584763077
 H       -13.9819618592        3.1195170095        5.6865394811
 H       -17.1336256553        1.2797103451        4.1271801533
 H       -16.3471168733       -0.5475583250        4.0028638051
 H       -15.8703332012        0.9535989554        2.9769009048
 H       -15.0741125764       -0.5449942201        7.5818320285
 H       -14.5407229665        1.1411841405        8.3312694697
 H       -13.7793958213        0.4370493803        7.0184741703
 H       -16.9987303863       -0.5871808334        6.5915935324
 H       -17.8370492606        0.7321716935        5.9214059083
 H       -17.3657448807        0.5780370384        7.7624399516
 H       -14.4676176301        9.0542060719        5.3225137162
 H       -13.4285471173        8.1394565145        6.7540798420
 H       -15.1436843301        7.8823650484        6.2726197258
 H       -15.7093951067        6.6197148817        4.4846658215
 H       -14.8696577492        5.5363701553        3.5220529081
 H       -14.7619911080        7.2996484643        3.0384488149
 H       -12.1932182575        1.9486279130        1.3475980098
 H       -11.4994333396        2.5748767875       -0.3110088621
 H       -12.4327054394        3.5569222695        0.6762415116
 H       -10.0789320661        1.4163294849        2.5162769217
 H       -11.2299250353        2.5223797867        3.0972520120
 H        -9.4350188022        2.5786977667        3.3877642384
 H        -3.8163105751        1.5794075979       -1.7983391071
 H        -3.1640291581        2.6614162134       -2.9148300807
 H        -4.5401680475        1.8703822409       -3.3334591384
 H        -3.2997885932        4.3897750284       -1.5209303474
 H        -3.4102889917        3.2298252165       -0.2907923768
 H        -4.4716071200        4.6737123118       -0.1509340799
 H        -3.6871243906        5.1894691251       -7.5960531130
 H        -5.1659381912        4.9734273065       -8.5930517925
 H        -4.3922757018        3.4851333554       -8.0194407755
 H        -6.9781019928        6.3220705692       -7.2450701447
 H        -5.5395624435        7.0838608114       -6.8115676136
 H        -6.5871409213        6.3241751540       -5.6268805444
 H        -8.7242984654       -0.2408174164       -2.9372102541
 H       -10.4208909382       -0.5532833553       -3.0720167446
 H        -9.8970389373        1.1047188201       -2.8617030375
 H        -8.9446859730       -0.9434866893       -6.1312717744
 H        -9.9788717320        0.1421860169       -6.9121429474
 H       -10.7746375635       -0.8667472071       -5.7187757664
 Na       -8.3385563695        2.8357062166       -2.4907506361
