117

 C       -10.9780597829        2.4134149861       -6.0117830503
 C       -10.2093667680        1.9738785143       -4.7978492382
 O       -10.0171873120        2.8452592223       -3.9128831453
 C        -9.5631746887        0.5269502458       -4.7431117492
 C        -8.0446930644        0.8831751578       -4.9002596655
 O        -7.4176944809        1.1660160603       -3.9342709589
 C        -7.5542342455        1.1277286213       -6.4231966862
 C        -6.4182152631        2.1268616072       -6.8833152207
 C        -6.7243694967        3.6201593016       -6.7398766402
 O        -7.8413461252        4.0429611411       -6.8571069360
 C        -5.5364990452        4.6267218545       -6.5490799082
 C        -4.5758445152        4.2735284375       -5.3853990382
 O        -4.2444698003        3.1345556230       -5.1831266106
 C        -4.0233844264        5.3504916190       -4.5675490231
 C        -4.7170606224        5.7555136463       -3.2376440693
 C        -5.4478083788        4.4404085290       -2.6516915473
 O        -6.6516831402        4.3819223726       -3.0220604540
 C        -5.0367200967        3.5064784410       -1.6059582275
 C        -6.1808344331        2.7684049110       -0.6567922713
 O        -6.4634872183        1.6688325067       -1.0869980316
 C        -6.8510021516        3.5676753446        0.4423154034
 C        -7.9323857536        2.6852041238        1.1304379969
 C        -9.2892350231        3.0573392765        0.4817623740
 O        -9.3705755236        3.2300403256       -0.7237817310
 C       -10.6254260072        3.2766604137        1.2009551132
 C       -10.8231796066        4.8194098721        1.6025757010
 O       -10.2765526837        5.6027093592        0.8941587974
 C       -11.5509368584        5.1047376183        2.8487568226
 C       -11.8640818159        6.6779185657        2.7837959204
 C       -12.1847085622        7.1590977648        4.1547243295
 O       -11.4415427153        7.9449432570        4.6389278834
 C       -13.6504920479        6.9824617216        4.6857345976
 C       -13.4880520144        5.6216711341        5.5907499231
 O       -12.4416454877        5.0373410081        5.7722468036
 C       -14.6607953633        5.0269081771        6.2684991798
 C       -14.5349301887        3.6188390774        6.8073977856
 C       -15.7959243524        2.7705816650        6.4713538137
 O       -16.8022769292        3.3486609790        6.0988808131
 C       -15.9075333714        1.2144232159        6.5759074524
 C       -15.2443147115        0.8464419822        5.2032161878
 O       -14.0201297945        0.9657369616        5.0114067355
 C       -16.1916073532        0.7956803432        3.8352140736
 C       -14.9681150591        0.7223049551        7.7591712489
 C       -17.4231074462        0.7984575098        6.8746831752
 C       -14.0522547753        8.2100438948        5.3965589719
 C       -14.8017254254        6.6601091849        3.6255379064
 C       -11.8042111168        3.1370929717        0.3032779716
 C       -10.6565622880        2.4949142282        2.5876499088
 C        -4.4866854510        2.2934575869       -2.3728095855
 C        -3.9314897249        4.1788478110       -0.6132143064
 C        -4.5759013350        4.3717465856       -7.8211039910
 C        -6.0458143774        6.0313089831       -6.4883614548
 C        -9.7914967447       -0.1280928508       -3.4377531954
 C       -10.1660808668       -0.5404708320       -5.8039847372
 H       -10.3004086737        3.0784653657       -6.5091863719
 H       -11.8465957976        3.0422825567       -5.7602098306
 H       -11.2565172364        1.7084218712       -6.7716335878
 H        -8.3821708597        1.5642206326       -6.9566894999
 H        -7.3738293949        0.1393867806       -6.7957431099
 H        -6.3163377126        2.1085196925       -7.9583207862
 H        -5.4431264300        1.7782739175       -6.5040045819
 H        -3.8562104692        6.1904298445       -5.1368863585
 H        -2.9882857920        4.8611535758       -4.3538419981
 H        -5.4625165243        6.4962480373       -3.3822616732
 H        -4.0388701644        6.3384568440       -2.5837806597
 H        -7.2023875409        4.4610092314        0.0700763194
 H        -6.1002387287        3.7587840075        1.1831939845
 H        -7.8011702670        2.5360401336        2.1613012174
 H        -7.9212944555        1.6405800076        0.8939082449
 H       -10.8169238494        5.0791765620        3.6789609833
 H       -12.4370733166        4.4822067965        3.1209302688
 H       -12.6614379866        7.0191941542        2.1707289994
 H       -10.9184464258        7.0444935999        2.6331425895
 H       -15.5222434936        5.0683896239        5.6564677189
 H       -14.8575845179        5.7746655979        7.0367668099
 H       -14.3797885416        3.6272021443        7.8482508299
 H       -13.7713598729        3.2442696696        6.1543810382
 H       -16.8753061758        1.5924885441        3.8326910843
 H       -16.4174296164       -0.2595252411        3.9611927400
 H       -15.6271629271        1.0631838299        2.9809775058
 H       -15.3287324900       -0.2058074305        7.9619662462
 H       -14.9747594007        1.6277673331        8.3948251516
 H       -13.9591607687        0.6002853659        7.3846682020
 H       -17.7710169940       -0.1834039251        6.5405014673
 H       -17.9241998813        1.4689298498        6.1987207642
 H       -17.5753122485        0.8993379440        7.9748795853
 H       -14.6948122738        8.6644638109        4.7444472426
 H       -13.2584200039        8.7331026231        5.8154341092
 H       -14.8006899157        7.9213137919        6.1754922782
 H       -15.7445324651        6.4116620403        4.0107031816
 H       -14.5153445283        5.7457061640        3.1000905073
 H       -14.8320223892        7.5502077057        3.0135007305
 H       -12.6959021881        3.4866594837        0.7042858293
 H       -12.0420007048        2.0891728904        0.0900124235
 H       -11.6327425503        3.6975136937       -0.6622239085
 H       -10.2700008087        1.4387095967        2.2909597338
 H       -11.6309071216        2.4297563671        3.1754570228
 H        -9.7219123411        2.7357621658        3.2052951092
 H        -3.8093566535        1.6032946689       -1.7940251174
 H        -3.7470200995        2.6492142096       -3.1218449082
 H        -5.2792277670        1.7982175201       -3.0448398674
 H        -3.2048113846        4.7591406853       -1.1958091171
 H        -3.4699270741        3.2416037387       -0.3447356352
 H        -4.4103841808        4.7321891252        0.1761212972
 H        -3.6786782141        4.9054510070       -7.8079599050
 H        -5.0623378964        4.5560438155       -8.8340621817
 H        -4.3674869213        3.3177032101       -7.6679445204
 H        -6.4499395204        6.4391460959       -7.4193786145
 H        -5.2876972252        6.7845576783       -6.2580839794
 H        -6.7915159988        6.2582278169       -5.6695648695
 H        -8.9277904119       -0.8229650798       -3.2282652578
 H       -10.6367041654       -0.8816707034       -3.5539965888
 H       -10.0488783827        0.5029265080       -2.5168091845
 H        -9.7619582341       -1.5173249032       -5.6010445004
 H        -9.8510207243       -0.3161682883       -6.8198844381
 H       -11.2161719930       -0.4465465616       -5.7538046273
 Na       -8.1936271770        2.8063837824       -2.7903288589
