117

 C       -11.4487624937        2.3383128168       -5.8171309422
 C       -10.4296456101        1.9204186504       -4.7579131768
 O       -10.0634996434        2.6790441179       -3.9165068890
 C        -9.6593224812        0.4825118168       -4.9488359550
 C        -8.0777945706        0.8099900046       -5.1689455387
 O        -7.2523657369        1.0159222127       -4.2524490170
 C        -7.6034693495        0.6480606922       -6.5778117736
 C        -6.3279524515        1.5968577574       -6.7993070979
 C        -6.6377080674        3.0627932706       -6.4121768342
 O        -7.7537685390        3.5136859131       -6.2299863510
 C        -5.5154788447        4.1210741608       -6.5036494110
 C        -4.3192166004        3.8812511635       -5.4671136793
 O        -3.7440804118        2.7852200523       -5.3990770310
 C        -3.6712641838        5.0880617335       -4.5767597865
 C        -4.6314557798        5.3593802865       -3.3489290330
 C        -5.4947441077        4.3435998849       -2.6177147412
 O        -6.5568288609        4.0079900840       -3.0596024947
 C        -4.8990332143        3.6228580734       -1.2274622091
 C        -6.2220051138        3.0546985671       -0.6208811668
 O        -6.5303491000        1.9239785468       -0.7539553571
 C        -7.1558028009        4.0419713858        0.1260463548
 C        -8.2536543214        3.2682179648        0.8169195038
 C        -9.5176075776        2.9026330409        0.0827572289
 O        -9.4459195880        2.3905818193       -1.0166314874
 C       -10.8990564821        3.3177951913        0.8216829837
 C       -10.7779929899        4.8325737713        1.3241559284
 O       -10.2722640136        5.6926024894        0.6068266929
 C       -11.4457088255        5.1955779698        2.5891590120
 C       -11.2698186827        6.6989587658        2.7961200490
 C       -11.7846425633        7.2720193714        4.1511052993
 O       -11.1039713970        8.0608057796        4.7826521018
 C       -13.2864603193        7.0559170580        4.5122937512
 C       -13.4847006832        5.8478391056        5.5064458332
 O       -12.5339176300        5.3126834168        6.0204419576
 C       -14.9654228571        5.4306796452        5.8962385705
 C       -14.9541468076        4.0655329675        6.6292140503
 C       -16.2480447619        3.2065258603        6.6080593603
 O       -17.2619234645        3.8082805992        6.2576901212
 C       -16.0616678575        1.6957561077        6.8942289465
 C       -15.2375132850        1.1773778617        5.4153513733
 O       -14.0378738977        1.0559655255        5.5027269166
 C       -15.8665559478        0.9573595609        4.0919941617
 C       -15.1833482067        1.3345412702        8.1616157324
 C       -17.6205439124        1.3125999962        7.1178416037
 C       -13.5480942055        8.3998259031        5.3509376484
 C       -14.1547650445        6.8602868257        3.2972966498
 C       -12.1212048929        3.1643057645       -0.0511196987
 C       -11.1371877433        2.3956917972        2.0675704411
 C        -3.9548318927        2.4189529370       -1.4637442688
 C        -4.2124953263        4.6933353156       -0.4322436922
 C        -4.7881909471        4.0294048494       -7.9186366302
 C        -5.9746058721        5.6146402866       -6.2246880274
 C        -9.8340280220       -0.2991903843       -3.5033409336
 C       -10.2010528628       -0.3052308353       -6.0993289130
 H       -11.0350175649        2.2183606743       -6.8610912373
 H       -11.6729187549        3.3896179959       -5.7109516279
 H       -12.2944660693        1.6479672606       -5.7560800376
 H        -8.3180350728        0.7102055932       -7.3241186534
 H        -7.1196772646       -0.3451419771       -6.6868804670
 H        -6.0306701302        1.4931386499       -7.8336854650
 H        -5.5003466105        1.1392781722       -6.2304019666
 H        -3.4908794558        6.0562902330       -5.1277842796
 H        -2.7938229277        4.7229813554       -4.1396348895
 H        -5.4174753737        6.1209192320       -3.5955733697
 H        -4.0784637428        5.9355258259       -2.6495474767
 H        -7.6132693815        4.6636997454       -0.6340449034
 H        -6.6540535533        4.6494376554        0.7983082348
 H        -8.7504264095        3.8278038057        1.6917591944
 H        -7.7955786568        2.4387199901        1.3157580840
 H       -10.8379362405        4.6505135475        3.3724225323
 H       -12.4516688526        4.7150002219        2.5880671574
 H       -11.5911212414        7.1732829427        1.9367705965
 H       -10.2012730307        6.7751335306        2.7012670128
 H       -15.5301037782        5.3185103196        5.0377873909
 H       -15.4112086494        6.2980271260        6.3989179324
 H       -14.6165483992        4.3900700610        7.6013318382
 H       -14.1964886748        3.5884275983        6.1170430382
 H       -16.6390694662        1.7196061893        3.9490268200
 H       -16.4057231937        0.0581870136        4.1457443276
 H       -15.1381206709        1.1476601120        3.2894141049
 H       -15.0448549531        0.2384308620        7.9538641451
 H       -15.8833711636        1.4456345316        8.9241131345
 H       -14.3005862887        1.9652621230        8.1020227238
 H       -17.6191627434        0.2217274160        7.1670707345
 H       -18.3908013881        1.7031885139        6.3560783302
 H       -17.9118545123        1.6862255156        8.1353514623
 H       -12.9687026865        9.2068496280        4.9266944580
 H       -13.0420730571        8.2170927253        6.2991229068
 H       -14.5008276834        8.6003156675        5.4917747214
 H       -15.1687240652        6.8084959842        3.6864536835
 H       -13.8395196560        6.0678283586        2.6706868646
 H       -14.2759406938        7.7370521110        2.7180254143
 H       -12.0596286180        2.5968501240       -0.9820365553
 H       -12.4547168164        4.1727051841       -0.1877630958
 H       -12.8251743206        2.5288813194        0.3005909913
 H       -11.5137290299        1.4265513629        1.6535125645
 H       -11.9124758194        2.7478792263        2.8587856266
 H       -10.2306720954        2.4588834990        2.7711356550
 H        -3.4031033629        1.9351622643       -0.6282947890
 H        -3.1063894479        2.6971759424       -2.2064956032
 H        -4.5344502311        1.5307713497       -1.7941419201
 H        -3.5229626430        5.2586774053       -1.0297100728
 H        -3.8057621862        4.1428810531        0.3690684542
 H        -4.9520687360        5.4342426479       -0.1498825370
 H        -4.0412142466        4.9012671188       -7.9519709584
 H        -5.5545664822        4.3440935893       -8.5719460217
 H        -4.2774241053        3.1095874139       -8.2054773917
 H        -6.6973798706        5.9993227074       -6.9548798089
 H        -5.1741154172        6.3711050367       -6.0988042509
 H        -6.3874609514        5.6717468717       -5.2204627664
 H        -9.8178772180       -1.4456225837       -3.4664544920
 H       -10.6642981614        0.2240453128       -2.9923981897
 H        -8.8644428526       -0.1019720280       -3.0038557049
 H        -9.6099053772       -1.1902229522       -6.1946256577
 H       -10.2792088660        0.3401466309       -6.9546214264
 H       -11.1380061363       -0.7392588073       -5.8005953422
 Na       -8.1354578377        2.2139956424       -2.7447356143
