117

 C       -11.4634647493        2.2195550513       -5.5112114752
 C       -10.1757008597        1.8561575774       -4.8192104890
 O        -9.5216469120        2.5376999272       -4.0592552272
 C        -9.7140799221        0.4474110752       -5.1950557400
 C        -8.0965404553        0.4729886996       -5.4569203301
 O        -7.2912123288        0.4081546127       -4.4815626402
 C        -7.5126667371        0.3473193459       -6.8162605378
 C        -6.2787933307        1.2490527602       -6.9606689758
 C        -6.4798207208        2.5885900282       -6.4479948880
 O        -7.4927255539        2.8596784903       -5.8347468236
 C        -5.3225499828        3.6413382341       -6.4798153657
 C        -4.2211990933        3.4019334152       -5.4238726748
 O        -3.9286701666        2.2760238217       -5.2402740198
 C        -3.6376507636        4.5262353884       -4.6434705930
 C        -4.3142854128        5.1677068251       -3.4376183629
 C        -5.3036462257        4.1764072073       -2.7823761770
 O        -6.1825203475        3.6293901947       -3.4377837685
 C        -5.0243916364        3.9111212351       -1.2230231360
 C        -6.2768817851        3.1417768249       -0.5917921585
 O        -6.4107647050        1.8828712968       -0.4174703141
 C        -7.4273111821        3.9214608018        0.2445167936
 C        -8.4061346636        3.1278575290        1.1307076755
 C        -9.7955241588        2.9097215827        0.2850761030
 O        -9.6676375177        2.2700378587       -0.7296825676
 C       -11.1528274754        3.4367084682        0.8367571490
 C       -10.9964252163        4.8822365031        1.2352020222
 O       -10.6498924666        5.6790597563        0.3951300168
 C       -11.1139100855        5.3380664196        2.6767714504
 C       -11.0610142218        6.8335401748        2.9117738671
 C       -11.6720486770        7.5312864698        4.2748521211
 O       -10.8923339241        7.8756336801        5.1156748136
 C       -13.1749251501        7.5611114854        4.6534092843
 C       -13.4722199915        6.1466818460        5.1244593767
 O       -12.5771894775        5.3320443917        5.3528825321
 C       -14.9142116198        5.7255770347        5.4163446678
 C       -14.9293083004        4.4923467813        6.3881063474
 C       -16.2038282606        3.6881388384        6.4473995674
 O       -17.3002739258        4.2187487076        6.2834502669
 C       -16.2257068169        2.1963210573        6.9740630469
 C       -15.3481277378        1.4578974551        5.8728500510
 O       -14.1522135403        1.2077381296        6.0501906408
 C       -16.1088683469        1.1066190689        4.5682698933
 C       -15.2635259133        2.1467067876        8.2975061875
 C       -17.7062828451        1.7907670086        7.1494613331
 C       -13.5465442837        8.6239731336        5.7218117129
 C       -14.1681197020        7.8809538310        3.4311039575
 C       -12.2193985536        3.1708528279       -0.3114681691
 C       -11.6753506100        2.3309741802        2.1149973615
 C        -3.6779657611        3.0746937758       -1.1809540113
 C        -4.7499514600        5.1963463123       -0.4348171293
 C        -4.7878682724        4.0325746989       -7.9598798251
 C        -6.0244560802        4.9793974937       -6.1674783265
 C        -9.9370614345       -0.5263923118       -4.0725278873
 C       -10.3047602324       -0.2523031920       -6.5937541099
 H       -11.3063210797        2.4628797876       -6.5604178682
 H       -11.8597274685        3.2153687576       -5.1485464739
 H       -12.0893165282        1.3021478830       -5.4138787608
 H        -8.2666898760        0.6644721727       -7.6540917230
 H        -7.4183172740       -0.6854348643       -6.9647099983
 H        -5.8232667073        1.2108661651       -7.9611657923
 H        -5.5520063555        0.7988837756       -6.3430314360
 H        -3.4676282446        5.3563532107       -5.3449631418
 H        -2.6295037984        4.1640297692       -4.4461505512
 H        -4.7745064679        6.0782586085       -3.8085763506
 H        -3.5298002504        5.3856454920       -2.6964469345
 H        -7.8934943194        4.5014178519       -0.5123398971
 H        -6.9893069344        4.6827030549        0.8944199331
 H        -8.3742155306        3.5727300104        2.1245696681
 H        -7.9240983058        2.0082182973        1.1096290798
 H       -10.3520504551        4.7741328770        3.2496717780
 H       -11.9900227130        4.9360851758        3.2278627375
 H       -11.4175377222        7.2690402288        1.9246442761
 H       -10.0553602483        7.1667649116        2.8107742457
 H       -15.3012099320        5.3968166747        4.4562616327
 H       -15.6384696058        6.3221282620        5.7995879439
 H       -14.6879186596        4.7234277460        7.3864313049
 H       -14.0739587227        3.8368256049        6.1529589760
 H       -16.4458697186        2.0176203926        4.1131669315
 H       -17.0553849882        0.6004228657        4.5123451286
 H       -15.4334418778        0.5916048152        3.8949787532
 H       -15.1670396215        1.1290174648        8.6281830450
 H       -15.8838297619        2.6482839666        9.0367673986
 H       -14.4369408106        2.6164392864        7.8516855699
 H       -17.6406396788        0.6570535159        7.2814583887
 H       -18.3129562243        2.1229502723        6.3436929968
 H       -18.3119138447        2.2975925885        7.8771311905
 H       -13.4377861184        9.5268727342        5.2836943316
 H       -12.7905545394        8.6622420008        6.3950475078
 H       -14.5611668027        8.4751402859        6.1933197938
 H       -15.2013696699        7.5211156183        3.6273229932
 H       -13.9217348359        7.3060310361        2.5554517626
 H       -14.1558092275        8.8802586864        3.0431240767
 H       -13.2519640494        3.3913435212       -0.1210373792
 H       -12.1240462977        2.1239997265       -0.5314073412
 H       -11.9283604456        3.7048088075       -1.2775750137
 H       -12.1254954603        1.3686950307        1.6453452201
 H       -12.5760031582        2.7741361144        2.6635857614
 H       -10.8535670535        2.3132731636        2.9392375029
 H        -3.7261377986        2.2466461852       -0.3998824931
 H        -2.8766112145        3.7887723262       -0.9467453784
 H        -3.2624991730        2.4014918915       -2.0215786372
 H        -4.0485720955        5.8070605025       -0.9602360630
 H        -4.3528422614        4.9729031622        0.5789796020
 H        -5.7149029018        5.6362575039       -0.3386633611
 H        -4.1647868210        4.8767256979       -7.8794959049
 H        -5.6477397140        4.0865891828       -8.6687555748
 H        -4.2157838669        3.1393254681       -8.3320396297
 H        -6.7498636220        5.2695595155       -6.9662445353
 H        -5.2510139189        5.7365474559       -6.2549604213
 H        -6.6589268970        5.1738034662       -5.3054235437
 H        -9.2368357507       -1.4011295060       -4.1158566421
 H       -10.9865562331       -0.8827893479       -4.3807881580
 H        -9.9339706938       -0.0736515453       -3.0064903556
 H        -9.6889994455       -1.1431786716       -6.7778999162
 H       -10.2522876871        0.5449255867       -7.3363230842
 H       -11.3745818921       -0.4894676860       -6.5171572049
 Na       -7.7824039037        1.7735046148       -2.7357184672
