117

 C       -11.4089830182        2.2522514235       -5.5493867559
 C       -10.1320820871        1.7700658723       -4.8062119085
 O        -9.6755458422        2.4661670578       -3.9274147835
 C        -9.6209701280        0.3069125981       -5.2437414153
 C        -8.0625225100        0.3278629600       -5.4405248694
 O        -7.3208425244        0.2777055610       -4.5059230141
 C        -7.4364738793        0.3185451684       -6.9028425838
 C        -6.1051688923        1.0916661767       -6.9737510543
 C        -6.4190189269        2.5249962391       -6.4888887467
 O        -7.5293083818        2.8241489636       -6.0429069824
 C        -5.3226301140        3.7021484538       -6.5011088943
 C        -4.1809273221        3.3009723313       -5.4445880056
 O        -3.9129713285        2.1274420404       -5.1263168781
 C        -3.4779993614        4.6020015108       -4.8242113689
 C        -4.2841872532        5.0844487555       -3.5400296772
 C        -5.2335161963        4.0576238965       -2.7422043311
 O        -6.1284218624        3.5922050706       -3.3602341086
 C        -5.1264739577        3.9540376142       -1.0976445295
 C        -6.2787477432        3.1149037405       -0.3943974391
 O        -6.3040055050        1.8984889299       -0.4166575391
 C        -7.4548479563        3.9504671201        0.3253887912
 C        -8.4217669362        3.0750041498        1.1453522217
 C        -9.8264183599        2.7816690042        0.3748831890
 O        -9.7660059385        2.4729819173       -0.7939717442
 C       -11.1934846963        3.3317568904        0.9005252506
 C       -11.0160426334        4.8816351971        1.2929172944
 O       -10.7331406768        5.7022595882        0.3966221261
 C       -11.2772455866        5.3790812567        2.6819151397
 C       -11.0550746590        6.8302831495        2.9152431142
 C       -11.5460509849        7.4457223527        4.1611228810
 O       -10.8095233344        7.7824719484        5.0275426695
 C       -13.1437871579        7.5025848220        4.6046138568
 C       -13.5282840573        6.0956033228        5.0631525127
 O       -12.6116906214        5.2972643312        5.1810121014
 C       -14.9525001034        5.6931056311        5.2809098398
 C       -14.9280498153        4.5443539261        6.4129125423
 C       -16.2318975409        3.8711960630        6.5492399104
 O       -17.2743839037        4.4129341054        6.0789114125
 C       -16.1918708731        2.3789510468        7.0674309719
 C       -15.4615902484        1.5165636989        5.9840576382
 O       -14.2408142632        1.2571503095        6.1133249254
 C       -16.0791158252        1.1145055842        4.7332711373
 C       -15.1614276633        2.2306566007        8.3353882196
 C       -17.6554685609        2.0496981186        7.0873292738
 C       -13.4248005090        8.4978079203        5.7392085162
 C       -14.2644718209        8.0212387996        3.4293419834
 C       -12.2145266032        3.2998319127       -0.2874340606
 C       -11.5319907931        2.5744025072        2.1913378314
 C        -3.8304711364        3.0758579950       -0.9699826089
 C        -4.9247226628        5.3678870331       -0.5141336638
 C        -4.7639509741        3.7680659852       -7.9647625154
 C        -6.0863098156        5.0982938184       -6.0947773874
 C       -10.1045582902       -0.7154712977       -4.1268759771
 C       -10.3859368295       -0.1030445990       -6.5004478840
 H       -11.1859192962        2.5657614352       -6.5751189916
 H       -11.6552870377        3.2492648928       -5.1041612080
 H       -12.2390587913        1.3813530974       -5.5202421178
 H        -8.0165409790        0.7479373022       -7.7373586384
 H        -7.4183451370       -0.7941063097       -7.2004631623
 H        -5.8485569694        1.1211673642       -8.0175437495
 H        -5.2847441170        0.5356236571       -6.4990746884
 H        -3.3283389868        5.3745300750       -5.5227697887
 H        -2.4302524259        4.2700248694       -4.4730681399
 H        -4.8773989072        5.9472435636       -3.8288760799
 H        -3.4541442328        5.3233494481       -2.7869778350
 H        -7.8218775510        4.6100116468       -0.5049157350
 H        -7.0633816795        4.7340545107        1.0818740877
 H        -8.4095482588        3.6235754858        2.1517955097
 H        -7.9340426550        2.1274709269        1.2393796031
 H       -10.7551093932        4.7255870411        3.4334337079
 H       -12.3146036567        5.1493720228        3.0318467489
 H       -11.5267835205        7.4055851124        2.0347239775
 H        -9.9224688824        7.1925738192        2.6873562209
 H       -15.5112117566        5.4459554350        4.4072464369
 H       -15.5187375668        6.4602521391        5.7584380543
 H       -14.3726094153        4.7203051740        7.3318853634
 H       -14.2516201264        3.6905967020        6.0599751861
 H       -16.3480698297        2.0502677093        4.2798952198
 H       -17.0928737424        0.7575065959        4.8026487403
 H       -15.5619384878        0.4234387359        4.0956330940
 H       -14.9957295822        1.2126215518        8.3628398569
 H       -15.8520910116        2.4669090576        9.1785483495
 H       -14.2753515089        2.7611747772        7.9756582915
 H       -17.7986552212        1.0939673701        7.4310366947
 H       -18.1851932926        2.2693356149        6.1181061022
 H       -18.2475785776        2.7693256990        7.6935391352
 H       -13.0004571514        9.4869809429        5.5689817350
 H       -12.9622561475        8.1771285835        6.6437755155
 H       -14.4910913940        8.5357164605        5.8780112329
 H       -15.2499387714        7.7449368325        3.5203322203
 H       -14.0694200559        7.6037588043        2.3924993284
 H       -14.0568963636        9.0862161002        3.2319683780
 H       -12.7134341416        4.3194530548       -0.4672679939
 H       -13.0877579338        2.5359075354       -0.5104669865
 H       -11.4710306035        3.2426847632       -1.1180341526
 H       -11.8980731563        1.6067004591        2.0018205901
 H       -12.3581270964        3.1017353474        2.7097440422
 H       -10.6183849116        2.6802656548        2.8990477618
 H        -4.0643816543        2.2362050782       -0.2651614883
 H        -2.9273393598        3.6596830625       -0.6185577424
 H        -3.3880938731        2.4139693196       -1.8148806817
 H        -4.1942927771        5.8838042491       -1.2222741292
 H        -4.3586353056        5.3045618070        0.4513820631
 H        -5.9219378582        5.8201540191       -0.3394420591
 H        -3.9044462305        4.4127081744       -8.1257704748
 H        -5.5837945608        3.9131930215       -8.7682578261
 H        -4.5366682473        2.7131324217       -8.1139264430
 H        -6.9848424310        5.2665604115       -6.5852477869
 H        -5.4944967736        5.9949316460       -6.1668985701
 H        -6.5387770108        5.0396181952       -5.0258868375
 H        -9.6601499471       -1.7191741182       -4.3267517923
 H       -11.1360826232       -0.7791977929       -4.2777643831
 H        -9.8511615472       -0.3594355958       -3.1191635665
 H       -10.1802752070       -1.1084277078       -6.8448990638
 H       -10.2624072798        0.7028783375       -7.2100091710
 H       -11.3867539172        0.0259906371       -6.2075077283
 Na       -7.6585357345        1.6631225380       -2.8428601881
