117

 C       -11.3470246012        2.4591747801       -5.4890892803
 C       -10.1783105197        1.6800528024       -4.8132660924
 O        -9.6863595942        2.1811080924       -3.7871280543
 C        -9.7035323190        0.2818305573       -5.3871332700
 C        -8.0331367873        0.1521510129       -5.4683745638
 O        -7.3147533041        0.1406092794       -4.5126463596
 C        -7.4125603351        0.2380512835       -6.9081015582
 C        -6.0853381010        1.1177052540       -6.9086131521
 C        -6.4409777105        2.5080898195       -6.4760971052
 O        -7.6204268379        2.7093207770       -6.2339724981
 C        -5.3817243724        3.6025382232       -6.4990582326
 C        -4.3114840866        3.3516317838       -5.4664426937
 O        -3.9391946705        2.2157387764       -5.1499277889
 C        -3.4532391574        4.4289045308       -4.7425868378
 C        -4.1894577063        4.9124939538       -3.4476071764
 C        -5.2452891342        4.0721860686       -2.6427766037
 O        -6.0791768077        3.3903025515       -3.2234458660
 C        -5.1399658267        4.0198078194       -1.1065488689
 C        -6.4258799502        3.1852872313       -0.4052701264
 O        -6.2833778820        2.0227662723       -0.5206625130
 C        -7.4601731616        3.9016342869        0.3925198711
 C        -8.5258104908        2.9490817087        1.1124636361
 C        -9.6356671146        2.9881682735        0.1862782593
 O        -9.6470906419        2.4748582914       -0.9312487068
 C       -11.0775609284        3.4086681048        0.9408402027
 C       -10.9666188622        4.9472171259        1.2824317443
 O       -10.7723769563        5.7124711862        0.3606774869
 C       -11.4881799164        5.4186732601        2.6412428378
 C       -11.2053362247        6.9500595524        2.7776670198
 C       -11.5931517121        7.4823030475        4.1657879169
 O       -10.7440177889        7.7723715249        5.0029202846
 C       -13.0928892738        7.5422046345        4.4989053439
 C       -13.5504443010        6.0303614477        4.8914084314
 O       -12.6365616062        5.2389741880        5.0374323524
 C       -14.9170752693        5.7407424766        5.2530923520
 C       -14.7859182527        4.6794947092        6.3637460157
 C       -16.1670943918        4.0122294258        6.4611511524
 O       -17.1616915216        4.4885294297        6.0092180453
 C       -16.1845983540        2.5632071770        7.1291765058
 C       -15.4392350378        1.6705174973        5.9477950230
 O       -14.3365033473        1.3075612880        6.2156507865
 C       -16.2171538452        1.1254335566        4.6914527083
 C       -15.4584690933        2.4288994706        8.4448160422
 C       -17.6218906437        2.0419620954        7.3113932241
 C       -13.2193707577        8.3740836195        5.7698896122
 C       -14.0275548953        8.0767557041        3.3770128811
 C       -12.2684066884        3.3905771537       -0.0295057634
 C       -11.4811540660        2.6396595062        2.2117033533
 C        -3.8632210968        3.0964422907       -0.7247970153
 C        -5.0793290057        5.4717830272       -0.5968967222
 C        -4.6859912631        3.5441146137       -7.8731837719
 C        -6.0219818680        4.9130182102       -6.2104619598
 C       -10.0991978316       -0.7687425695       -4.1240671798
 C       -10.4180018858       -0.0938078298       -6.6343957779
 H       -11.0942318796        2.5735319040       -6.6000763243
 H       -11.3754913567        3.4973614100       -5.1348770161
 H       -12.2117914046        1.8498103293       -5.3441474161
 H        -8.0417337741        0.5913525264       -7.6505161553
 H        -7.1202425970       -0.7987311384       -7.3541020666
 H        -5.6070183889        0.9145089790       -7.8581997043
 H        -5.4052682060        0.5915540602       -6.1689182688
 H        -3.2387930532        5.3284118484       -5.3532987546
 H        -2.4809436396        3.9568627523       -4.5470322622
 H        -4.8412495642        5.6932627662       -3.9496242460
 H        -3.4379460912        5.3314155295       -2.7746444562
 H        -7.9284351593        4.6890212151       -0.3359131897
 H        -7.0338557387        4.6230793235        1.1442287452
 H        -8.7978656635        3.6289874044        1.9395112461
 H        -8.2571719519        2.0047102331        1.3681089194
 H       -11.1354214813        4.9195916463        3.5555844790
 H       -12.5461176204        5.1278754016        2.7521110938
 H       -11.4863862297        7.6212299642        1.9276299773
 H       -10.0668992567        7.0978629352        2.7240443909
 H       -15.5572763825        5.4114318147        4.4311483223
 H       -15.5083776625        6.6254391145        5.7477102357
 H       -14.5050612846        5.0147887664        7.4213590164
 H       -13.8637044877        4.0472103392        6.2324865371
 H       -16.7588354600        1.7544202747        3.9211877529
 H       -17.1650267858        0.7537394500        5.1188481196
 H       -15.8054294701        0.1824918006        4.2587188614
 H       -15.4377009018        1.2785674173        8.4425558441
 H       -16.2018332584        2.7267321700        9.1185115265
 H       -14.4467728254        2.7996692430        8.2961329880
 H       -17.6491783139        1.1603734395        7.9132328874
 H       -18.3517193599        2.0316268414        6.4717955674
 H       -18.1043986638        2.8016718614        7.9533338834
 H       -12.4767714667        9.2387307822        5.9457040406
 H       -12.8973195924        7.5529041272        6.5498023825
 H       -14.1783842840        8.7067800766        6.0478109954
 H       -15.0787783508        7.8745071130        3.5732326283
 H       -14.0275415179        7.5704657254        2.3885683255
 H       -13.7622395189        9.1125087249        3.1767190275
 H       -12.2740575282        4.4149775337       -0.5502573761
 H       -13.3987354122        3.3080171467        0.3172548303
 H       -12.0671423507        2.6467576761       -0.8225848641
 H       -11.5420904510        1.5842303960        2.0028601864
 H       -12.4510710327        2.9840857051        2.5301402436
 H       -10.7492973655        2.7736803954        2.9591922283
 H        -4.1801892395        2.3589644453        0.0382398759
 H        -2.9248729840        3.6385261356       -0.4545129344
 H        -3.4888946792        2.4909765657       -1.5004515754
 H        -4.1315006722        5.9675205901       -0.9511755805
 H        -4.9142744813        5.3815212537        0.4963597319
 H        -6.1082029629        5.9245259218       -0.7630721589
 H        -3.8294499820        4.3430534320       -7.7791446336
 H        -5.3738380510        3.9024163875       -8.6376227340
 H        -4.4085472517        2.5399675268       -8.1487662899
 H        -6.9969064324        5.1087228489       -6.6192783848
 H        -5.4722231261        5.8614704066       -6.2436410276
 H        -6.3487988894        4.7703698015       -5.2176295106
 H        -9.9845419155       -1.7473118686       -4.4794104449
 H       -11.0493329851       -0.6765590904       -3.6964085673
 H        -9.3761918170       -0.5435829828       -3.4443021951
 H       -10.1017619755       -1.0816021767       -6.8850962388
 H       -10.3252901653        0.6115109377       -7.4425597719
 H       -11.4295406976       -0.0941171864       -6.3130546549
 Na       -7.5957572247        1.7104557691       -2.7929369047
