117

 C       -11.1551331358        2.5323540790       -5.4291170134
 C       -10.0894107942        1.6056478110       -4.7833052891
 O        -9.6236955219        1.9108448565       -3.6976882263
 C        -9.6680286424        0.2385478229       -5.4258108516
 C        -8.1554852937        0.2518968805       -5.5702725269
 O        -7.4515794866        0.0305350190       -4.5425537003
 C        -7.4282766617        0.0298809220       -6.8367019471
 C        -6.1487077905        0.9301454349       -6.7585665432
 C        -6.5928737820        2.3932182076       -6.5144725876
 O        -7.7291681564        2.7434595716       -6.3273682419
 C        -5.4196604770        3.5051922858       -6.4303661001
 C        -4.2932614970        3.1605706172       -5.3931283429
 O        -3.9974820266        2.0343022826       -5.2157727297
 C        -3.6214788591        4.3340465580       -4.5162950677
 C        -4.2012315500        4.9347442042       -3.2415270425
 C        -5.1653733121        3.9290048189       -2.6387003120
 O        -5.9719327505        3.2324860489       -3.2632670414
 C        -5.1376500270        3.9805871537       -0.9845801856
 C        -6.3723052935        3.2294887272       -0.4864268663
 O        -6.5047483286        2.0205490548       -0.6919760881
 C        -7.3008047924        4.0387307337        0.4665040483
 C        -8.4609298152        2.9820875669        1.0533981126
 C        -9.7459492946        2.8894275686        0.1840967517
 O        -9.6301053705        2.5807814137       -0.9679241545
 C       -11.1009574862        3.4249698142        0.8186752468
 C       -11.0226706516        5.0833506687        1.1285459044
 O       -10.6100438316        5.8439556453        0.3192979339
 C       -11.5305173356        5.5178966236        2.4693810481
 C       -11.1752387894        7.0675637922        2.6105752253
 C       -11.5564204803        7.5009581108        4.1134276858
 O       -10.6873741050        7.7994572190        4.9135265027
 C       -13.0325631203        7.5818328557        4.4813007634
 C       -13.4193286670        6.0637030904        4.8343185913
 O       -12.5914326293        5.1610340560        4.8699983134
 C       -14.8166326682        5.8629853292        5.2946275269
 C       -14.8954277751        4.8312734817        6.3991344434
 C       -16.2026708344        4.0592991633        6.4804551440
 O       -17.1465635281        4.5549197481        5.9332684402
 C       -16.2536131327        2.5363236434        7.1366780234
 C       -15.5530946708        1.5800488570        6.1373336220
 O       -14.3609748134        1.3710703701        6.1536465943
 C       -16.3254036111        1.1752248580        4.8810022331
 C       -15.5965702105        2.6437610326        8.5173012809
 C       -17.7439806764        2.0546156213        7.4302265682
 C       -13.1359414575        8.3216224026        5.9188770191
 C       -13.7921031472        8.1657908048        3.3435505341
 C       -12.3977235780        3.3155586486        0.0078572040
 C       -11.2864533041        2.5346250143        2.1405346086
 C        -3.8872080424        3.3483691553       -0.5363932836
 C        -5.1678765046        5.5797058217       -0.5338573917
 C        -4.5142330149        3.5148375611       -7.8909617039
 C        -6.0897530593        4.9363947570       -6.3579887749
 C        -9.9822913106       -0.7321889000       -4.2582552762
 C       -10.4118342596       -0.1855653376       -6.7379680167
 H       -11.0205129913        2.5216249057       -6.5047511088
 H       -11.0647309146        3.5625151301       -5.0870251128
 H       -12.0502804290        2.0811401370       -5.1423814365
 H        -7.9818243900        0.4100133659       -7.7130612420
 H        -7.2060629952       -0.9559675699       -7.0657362265
 H        -5.5451690333        0.6195634361       -7.6498521622
 H        -5.5490984521        0.5989147243       -5.9098259911
 H        -3.4550598701        5.1268670978       -5.3147052834
 H        -2.6598381400        4.0130512592       -4.2563257486
 H        -4.7760472676        5.8667038922       -3.4299914483
 H        -3.3800528535        5.0407940849       -2.5942470268
 H        -7.6383943694        4.9944162410        0.0556999379
 H        -6.7038929169        4.3666894120        1.2916756340
 H        -8.5803797795        3.2256696867        2.0222260151
 H        -8.0176608786        1.9377400587        0.8617618300
 H       -11.3664861705        4.9510409049        3.3550023178
 H       -12.6079327939        5.4412660377        2.4781896492
 H       -11.7711508940        7.6546278262        1.9257796502
 H       -10.2143286249        7.3025880167        2.3788644363
 H       -15.2346943006        5.3281873921        4.3553803015
 H       -15.5042297416        6.7108943621        5.4908232531
 H       -14.7035063754        5.1422018410        7.4610543598
 H       -13.9653532829        4.2768449924        6.3038991318
 H       -16.6600804404        2.0566695918        4.2468268774
 H       -17.3192869627        0.6323068509        4.7906083569
 H       -15.6265563330        0.4874953133        4.3133968582
 H       -15.6468437673        1.5993264460        8.9258508015
 H       -16.2982104311        3.3063901564        8.9475522475
 H       -14.5815760581        2.9084099619        8.3156654627
 H       -17.7537486229        1.0862044595        8.1011001454
 H       -18.5316650171        1.9651068492        6.7162995766
 H       -18.0670924002        2.7818991510        8.1914589298
 H       -12.4193074804        9.1692243421        5.9574616457
 H       -12.8747429246        7.6154876452        6.7437552424
 H       -14.1918014498        8.8135441124        6.1911061938
 H       -14.9005533432        8.2030986486        3.6035513213
 H       -13.9452359377        7.5267805091        2.5228901369
 H       -13.3549171072        9.0878474823        3.0228642175
 H       -12.4682526400        3.7455649408       -0.9579136805
 H       -13.0058508016        4.0027247209        0.4930420358
 H       -12.9003515363        2.3091441325        0.0327357527
 H       -11.0049056663        1.4848230474        1.7893311675
 H       -12.3010161961        2.5501931755        2.5232146683
 H       -10.4398436083        2.6374003036        2.7938896282
 H        -3.8792260269        2.8349111225        0.4242955675
 H        -3.0566734628        3.9395988309       -0.6467569770
 H        -3.6187294362        2.6573509056       -1.2818932737
 H        -4.1566998049        5.8927466600       -0.5481303714
 H        -5.4233947087        5.6935705082        0.5357446617
 H        -5.9134626660        6.0946944347       -1.1331440681
 H        -3.9266054234        4.4351062902       -7.7565620218
 H        -5.1752149246        3.7442704131       -8.7213308874
 H        -3.9895977631        2.5587565265       -8.1194118774
 H        -6.8372956433        5.1099151003       -7.1897062915
 H        -5.3497556563        5.7396406720       -6.4457389569
 H        -6.6913449810        5.1187127977       -5.5052423996
 H       -10.2726711582       -1.6067799443       -4.7208318221
 H       -10.8690115512       -0.4181574726       -3.7005809585
 H        -9.1874188849       -0.8021785031       -3.5435929911
 H        -9.8856733043       -1.0828111816       -7.0469190893
 H       -10.1452538691        0.5670289962       -7.4681449368
 H       -11.5045480996       -0.3262024642       -6.6391421013
 Na       -7.6367525695        1.7702760013       -2.6326796436
