117

 C       -10.9741612196        2.5766833338       -5.4450249206
 C        -9.9742454790        1.5698750820       -4.7670459088
 O        -9.6010194199        1.8184745142       -3.6735666701
 C        -9.6731594217        0.1002187020       -5.3986200179
 C        -8.1580956797        0.0327037194       -5.5205282213
 O        -7.5485095209        0.1749391437       -4.4306116344
 C        -7.4106190770       -0.0590096365       -6.8839629720
 C        -6.1779463479        0.9412472812       -6.7214088908
 C        -6.5173908014        2.3729585556       -6.5867800934
 O        -7.6969321881        2.7010020486       -6.4161255235
 C        -5.4674327831        3.5146650769       -6.5164919368
 C        -4.4693673722        3.0488645219       -5.2208121063
 O        -4.0009895937        1.9410964841       -5.2148521533
 C        -3.6759617773        4.2062739282       -4.5712029052
 C        -4.2256425515        4.8180205677       -3.2540638508
 C        -5.1942730309        3.9515532231       -2.5183396253
 O        -5.7617185818        3.1632467802       -3.1955282188
 C        -5.2123101756        4.0182653171       -0.9761259846
 C        -6.3734587456        3.2893788326       -0.3808822255
 O        -6.6476475837        2.1583842311       -0.8176037445
 C        -7.3199821618        3.8948727104        0.6118337816
 C        -8.4717271342        2.9902684059        1.0502333794
 C        -9.7514979784        3.1036209933        0.0537987392
 O        -9.7174562003        2.6377966357       -1.0795243722
 C       -11.0554053938        3.5460593075        0.8161678773
 C       -10.9600109017        5.0856019546        1.0401889119
 O       -10.3761365244        5.7389011932        0.1350301173
 C       -11.5332150551        5.6650888111        2.2431508087
 C       -11.1371986410        7.1139533932        2.5973394268
 C       -11.3979545119        7.5698555356        4.0863367197
 O       -10.4461502364        7.8299357682        4.7494859927
 C       -12.9194407412        7.5580074782        4.5370913760
 C       -13.3702623084        6.1031535250        4.8721076334
 O       -12.5849362919        5.1775523218        4.7831629531
 C       -14.8477327932        5.7969539110        5.3298604759
 C       -14.9895057732        4.8019531589        6.5060619026
 C       -16.3294786827        4.0253430811        6.4653311025
 O       -17.3387930331        4.5195426275        5.8593390930
 C       -16.3575182526        2.6239681226        7.2772327877
 C       -15.6203333812        1.6269129170        6.1410559530
 O       -14.3851106193        1.4589784023        6.2721882029
 C       -16.4482077453        1.2156708477        5.0184883008
 C       -15.4944631197        2.8059511734        8.6328875278
 C       -17.8506304742        2.2126214434        7.3833249283
 C       -13.0742499432        8.3115698421        5.8753537300
 C       -13.7721615605        8.2637760806        3.4621975831
 C       -12.3815819372        3.1566057440       -0.0466210638
 C       -11.0944327019        2.5779973901        2.0595535918
 C        -3.8366748443        3.5076718641       -0.3846666761
 C        -5.2392279013        5.5376246156       -0.5812483784
 C        -4.5010004735        3.4508860012       -7.7401141082
 C        -6.0777516824        4.8444342350       -6.4764420754
 C       -10.1056634408       -0.8987007307       -4.3445724095
 C       -10.4204031909       -0.1555701468       -6.7714343045
 H       -10.8914289270        2.5507029137       -6.4707792877
 H       -10.7434987168        3.5529628513       -5.0339392415
 H       -11.9955897072        2.2298945683       -5.0629235524
 H        -8.0496756493        0.2592420590       -7.7645243718
 H        -6.9839211584       -0.9726442605       -7.1702809777
 H        -5.5387645250        0.7236702944       -7.5983467129
 H        -5.6239193842        0.5352821966       -5.9078547785
 H        -3.5857421929        4.9009309082       -5.3833204462
 H        -2.6383540518        3.8961514822       -4.3498244168
 H        -4.8400456221        5.6365280376       -3.4652265649
 H        -3.3356004230        5.0714417657       -2.6909903254
 H        -7.7628311361        4.7320784345        0.2006083473
 H        -6.7983972790        4.3072658766        1.4417963131
 H        -8.7018220302        3.3817784476        2.0814626356
 H        -8.1371170448        1.8919951818        0.9402237377
 H       -11.1407613146        5.1069887500        3.0848220950
 H       -12.5507914020        5.4351867253        2.4478092909
 H       -11.6496261435        7.8661553990        2.0482847597
 H       -10.0468703465        7.1798561375        2.4417678823
 H       -15.4959172253        5.5390751031        4.4412416211
 H       -15.3226416411        6.6138135225        5.7594013773
 H       -14.8850508081        5.2786784808        7.4447475014
 H       -14.0916523300        4.2109302959        6.6308852818
 H       -16.9759125017        2.0656349206        4.5809890991
 H       -17.3573733579        0.5601258816        5.0943668302
 H       -15.9164846796        0.6557963779        4.2489050475
 H       -15.5736952355        1.9972682267        9.2353208899
 H       -15.9349054352        3.7880259774        8.8822946741
 H       -14.4858160524        2.7810183448        8.2372325466
 H       -17.9306285579        1.1447813108        7.6610643931
 H       -18.3519797309        2.2065247589        6.3848151958
 H       -18.5165429655        2.7404166002        8.1344798511
 H       -12.6285649270        9.2573195851        5.6668003202
 H       -12.8888446282        7.9227899073        6.8407501950
 H       -14.1298647511        8.6816067654        5.8098911604
 H       -14.7364252365        8.5806184195        3.7909003342
 H       -14.1048299633        7.6028282044        2.6942211802
 H       -13.1857527224        9.0912610357        3.0544100334
 H       -12.3250040396        2.8815199550       -1.0234518217
 H       -12.8323752920        4.1044921436       -0.2399675193
 H       -12.9678741722        2.4960678030        0.5118462751
 H       -10.8376094884        1.5390663613        1.7157688526
 H       -12.1539095061        2.6260402942        2.4312367030
 H       -10.1599261395        2.6302792196        2.7651112722
 H        -3.8271553978        3.6799264237        0.6787795865
 H        -2.9645918111        3.9151778514       -0.8194675893
 H        -3.5882996581        2.4630271463       -0.6626038495
 H        -4.2291711607        5.8594229049       -0.5815626340
 H        -5.5084859478        5.6970081627        0.4352452673
 H        -5.8835270840        6.0759953321       -1.1944522833
 H        -3.9544779035        4.3283580672       -7.8290899069
 H        -5.1171683945        3.4019763905       -8.6847618361
 H        -3.9642188269        2.4968487332       -7.6538204984
 H        -6.5656012656        5.1341837279       -7.4014121845
 H        -5.3034256920        5.5858306447       -6.3647025622
 H        -6.9159737375        5.0638858553       -5.6994874745
 H       -10.3952255082       -1.8121810530       -4.9525417407
 H       -11.0810982031       -0.6145279071       -3.8876873494
 H        -9.4149623535       -1.0098411240       -3.4387978707
 H        -9.8909953652       -1.0335499336       -7.2281270108
 H       -10.0878938730        0.6621043892       -7.4481883218
 H       -11.5178367867       -0.3375187864       -6.7102707640
 Na       -7.7750070633        1.7389766191       -2.5022298503
