117

 C       -10.7338490410        2.5042178256       -5.7911598266
 C       -10.1440904639        1.4916112822       -4.8353310145
 O        -9.7515387574        1.7364057001       -3.6686805229
 C        -9.8037661051        0.0328386543       -5.3690549494
 C        -8.1231991075        0.0463725898       -5.3568025067
 O        -7.5126812766        0.2473181320       -4.3469801497
 C        -7.4368448442       -0.1821617896       -6.6488827133
 C        -6.2165729750        0.8124369159       -6.8993085639
 C        -6.5633742285        2.2210908467       -6.6187205430
 O        -7.7086676028        2.5549447409       -6.5983741989
 C        -5.3709641029        3.3274723441       -6.5307395256
 C        -4.3547926776        2.9959208277       -5.3083175867
 O        -4.2273679465        1.8828963706       -4.9083610105
 C        -3.5187326586        4.1008693174       -4.6063340018
 C        -4.2695160360        4.7455427908       -3.4313894944
 C        -5.0590735907        3.8740895802       -2.4837841325
 O        -5.7100895378        2.9050310493       -2.9428947156
 C        -5.2187140926        4.2418489866       -0.8972574294
 C        -6.3396908215        3.3783484991       -0.3745339651
 O        -6.4600247706        2.2043406419       -0.6093652673
 C        -7.2244990363        4.0051321044        0.7128156379
 C        -8.4363377588        2.9176487104        1.0387408057
 C        -9.6651453403        2.9586239284        0.0539251103
 O        -9.5541005884        2.9080073982       -1.1363884992
 C       -11.0944821013        3.4112817722        0.7313964916
 C       -10.7594568922        5.0491776799        0.7393062309
 O        -9.9684953446        5.6024417050        0.0483956811
 C       -11.4659144683        5.7607172160        1.9820330289
 C       -11.0454217975        7.1951285460        2.3592565361
 C       -11.3338577835        7.5468859648        3.9448487722
 O       -10.3759591962        7.9115238307        4.6186116853
 C       -12.7509726204        7.5977911427        4.5763372321
 C       -13.3505856658        6.1589845986        4.9267173433
 O       -12.7037845640        5.1302186593        4.8603046263
 C       -14.7981927744        6.0986125992        5.2711437292
 C       -15.1374179779        4.9567160725        6.3533487475
 C       -16.4685147005        4.2301018380        6.4106947077
 O       -17.3281377782        4.5229019828        5.6736488790
 C       -16.5342950083        2.8813278716        7.2878573510
 C       -15.7560675105        1.8013423491        6.3859429784
 O       -14.5707274696        1.6421293932        6.4794286655
 C       -16.6335604396        1.1369220726        5.2210058170
 C       -15.6611034937        2.9172573060        8.7311420297
 C       -17.9878153795        2.4323603001        7.7055906118
 C       -12.5848466082        8.4498966123        5.8856062648
 C       -13.6951609191        8.1473166713        3.6054943477
 C       -12.1415577300        3.1027614070       -0.3675954540
 C       -11.4314182443        2.8712760090        2.2114637092
 C        -4.0448891527        3.6487430145       -0.1500498932
 C        -5.3278894643        5.7014263684       -0.7323756590
 C        -4.4310060315        3.0756923507       -7.8211874456
 C        -6.0737989656        4.7900563809       -6.3491303277
 C       -10.3759995172       -1.1433805572       -4.6071091743
 C       -10.3446559735       -0.1303509858       -6.7894655028
 H       -10.1665866964        2.3367719903       -6.7954467366
 H       -10.5821588743        3.5018211329       -5.2321703575
 H       -11.7789053077        2.2585411059       -5.7990247023
 H        -8.1121091659       -0.1137331939       -7.4851590020
 H        -7.0613389559       -1.2668232871       -6.6193323665
 H        -5.8457540292        0.6381411908       -7.9074607173
 H        -5.4609527659        0.4020537821       -6.2064485056
 H        -3.4008501890        4.9318060817       -5.3745969267
 H        -2.5081889812        3.8218057864       -4.4060976593
 H        -5.1189965631        5.3381970739       -3.9643857901
 H        -3.5197743387        5.3611852832       -2.9449364235
 H        -7.7508178386        4.9956306113        0.3621177048
 H        -6.4952505317        4.3696078580        1.5006653211
 H        -8.8334008088        3.0107387401        1.9586769944
 H        -7.8989874315        2.0194498472        0.8113218265
 H       -11.6346787971        5.2558200223        2.9781297630
 H       -12.5860189339        5.8651317584        1.7628603104
 H       -11.4508221245        7.9793101171        1.5600421109
 H        -9.9556886404        7.1770101583        2.4762809484
 H       -15.2485346565        5.8777726241        4.3403093627
 H       -15.3218491380        7.0292308355        5.6111196336
 H       -14.9582296189        5.2612093572        7.4353860028
 H       -14.2442562824        4.3401558772        6.4042264563
 H       -17.5005235526        1.6529946314        4.9524144363
 H       -17.0848509792        0.2048346881        5.2586791000
 H       -16.0947520030        0.8756985263        4.3511299735
 H       -16.1617426236        1.9708030542        9.1127335073
 H       -15.6896479249        3.8730492491        9.1490342308
 H       -14.8011127517        2.3441817633        8.5034026912
 H       -18.1106656111        1.3521280161        7.8568184453
 H       -18.7240622118        2.6134215802        6.9931609666
 H       -18.2212634653        2.8454689499        8.6455587236
 H       -12.6663666915        9.4739443198        5.6688003076
 H       -11.7049935934        8.0988407255        6.3381259036
 H       -13.3299553647        8.2821323961        6.7097960602
 H       -14.7243899032        8.2394080053        4.1211723240
 H       -13.8514421513        7.5755630800        2.6756809135
 H       -13.4892264311        9.1849259937        3.4177106696
 H       -12.6174857820        2.0607517894       -0.1839339532
 H       -11.7855752617        2.9350606670       -1.3608287470
 H       -13.1077123056        3.6777513044       -0.0642607099
 H       -11.0875382816        1.8991214433        2.4857963871
 H       -12.4379405156        3.1120369253        2.2455619665
 H       -10.8444873345        3.3575917652        2.8639910805
 H        -3.4663461376        4.4676139473        0.4133156546
 H        -3.2691861213        3.1632123476       -0.8161196517
 H        -4.1813131119        2.7087645105        0.3775463123
 H        -4.7503901926        6.3168341425       -1.4567411321
 H        -5.0188741488        6.1021279655        0.2631823778
 H        -6.4318066913        5.9213525568       -0.9138782700
 H        -3.7293813880        4.0062025899       -7.7539271169
 H        -4.9529927673        3.3289392422       -8.7105456387
 H        -3.8993362408        2.0959844910       -7.8097475587
 H        -6.4585914571        5.1270788881       -7.3645141404
 H        -5.3594833990        5.6060100190       -6.1505298993
 H        -6.8450511928        4.8654361357       -5.6827048624
 H        -9.8857648827       -2.0555161037       -4.8570826575
 H       -11.4625924713       -1.3509743339       -4.7891556341
 H       -10.3173621973       -0.8157951097       -3.5713475942
 H       -10.3552647028       -1.1553331646       -7.1409142160
 H        -9.8113898369        0.4489945297       -7.5310151978
 H       -11.3975983539        0.0996406076       -6.6486034093
 Na       -7.9941163895        1.5551627609       -2.3924415149
