117

 C        -8.9511798710       -6.3971669652        3.2908254027
 C        -9.6830924356       -5.4859423344        2.3393189402
 O       -10.2202856038       -5.9350364270        1.3659523371
 C        -9.5921369544       -3.8432604706        2.5874125982
 C       -10.4916896595       -3.2809030604        1.3538743919
 O        -9.9730237582       -2.7165454500        0.3780159737
 C       -12.0003581366       -3.5598430522        1.4321052699
 C       -12.7516648814       -3.4086719739        0.1019314245
 C       -12.6395788435       -2.1323605734       -0.7577376730
 O       -12.3793819057       -2.2400831491       -1.9194111399
 C       -13.1002925386       -0.7564731813       -0.1945047615
 C       -11.7445940508       -0.0161642636        0.1978413437
 O       -11.3256220422       -0.2747295499        1.3158655440
 C       -10.8970974711        0.6258755113       -0.9044292853
 C        -9.4789424645        1.1370131886       -0.5616769973
 C        -9.0740485790        2.4681898787       -1.2764362569
 O        -8.7586806076        3.4238297123       -0.6033074484
 C        -8.9383157571        2.6194591420       -2.8498230268
 C       -10.2473974977        3.3187455146       -3.4093554870
 O       -11.3312517232        3.3012311685       -2.8377678474
 C       -10.0631384705        4.1089020530       -4.7402631487
 C       -10.8467727688        5.4614354439       -4.5429980486
 C       -10.2285862773        6.3611347641       -3.5433112761
 O        -9.0659411191        6.2574154524       -3.1123972275
 C       -11.2156369924        7.5175405724       -2.9253336559
 C       -10.3519460848        8.3631733158       -1.8216563757
 O        -9.7259401124        7.8726764900       -0.9140882228
 C       -10.1836370671        9.9095964971       -2.0378183189
 C        -9.5403457082       10.5691466112       -0.8298790294
 C       -10.3322202687       10.4656820528        0.4081705316
 O       -11.5287546808       10.2131582150        0.3005900499
 C        -9.6815187239       10.8284648612        1.8160541030
 C        -8.6859069332        9.7078209410        2.1834630224
 O        -7.6797927244        9.5925107409        1.5627125375
 C        -9.0665953032        8.7662110950        3.3450750258
 C        -7.8584819446        7.7616584001        3.6259418814
 C        -7.7988058536        6.6764044337        2.5039026667
 O        -8.8087060638        6.2569054712        1.9195500114
 C        -6.4628271417        5.7515876115        2.2469992043
 C        -5.8601394149        6.0978934778        0.8271312192
 O        -6.6179450936        6.2204720639       -0.0983003115
 C        -4.3647830874        6.0315077426        0.6632140292
 C        -5.5441664005        6.0203521792        3.3724984042
 C        -6.8028383158        4.2255873162        2.3009697354
 C        -8.9813219055       12.1159338405        1.6091281858
 C       -10.8234798086       10.9719906121        2.8198786713
 C       -11.8098665650        8.5057889173       -3.9500809084
 C       -12.5194161042        6.8959287836       -2.2166011982
 C        -7.5518116176        3.2282365200       -3.1965376179
 C        -9.0239338047        1.2239948228       -3.5288226182
 C       -13.8414731129       -0.2005333163       -1.3855521067
 C       -14.2153782357       -0.8804113549        0.8389831529
 C       -10.2023225640       -3.6460361007        3.9285804078
 C        -8.1405838373       -3.4965144595        2.5429146550
 H        -7.9065034204       -6.0527229699        3.3256607629
 H        -9.0323220649       -7.3975124968        2.9797321119
 H        -9.2910619055       -6.2529683741        4.3030122046
 H       -12.3869366033       -2.8510297304        2.1056474235
 H       -12.1433758851       -4.5503674311        1.8947688747
 H       -13.8482386441       -3.4293798039        0.2141159480
 H       -12.5537390961       -4.2516921620       -0.5387469871
 H       -11.4671455426        1.4266561431       -1.4047054867
 H       -10.8612863986       -0.2977481385       -1.6125599180
 H        -8.7546907679        0.4248114775       -0.9429225916
 H        -9.4179855811        1.1728830325        0.5005700724
 H       -10.7281084952        3.7061945794       -5.5516507053
 H        -9.0394619238        4.3401447952       -5.0511718628
 H       -11.8455757834        5.1655351196       -4.2330516190
 H       -10.7769733887        6.1045615101       -5.5140055144
 H       -11.1225582633       10.4803461736       -2.3028320411
 H        -9.5188996738       10.0582782142       -2.9667792863
 H        -9.3260733602       11.6432259816       -0.9237683101
 H        -8.6049027928       10.0772565728       -0.7238225902
 H        -9.9045455612        8.2062882004        3.0402220875
 H        -9.1672758321        9.3580408932        4.2455423906
 H        -7.8742203561        7.2359004850        4.6002643035
 H        -7.0443444612        8.4659619181        3.7475107427
 H        -3.9592513149        6.9869850785        1.0885428333
 H        -4.1075369685        5.9965813500       -0.3330128327
 H        -3.8301536509        5.1933310081        1.0971313346
 H        -6.0721206252        5.9478237187        4.3815959505
 H        -5.0377940181        6.9835858165        3.2958832392
 H        -4.7236011721        5.3306506864        3.3528966565
 H        -5.9096264609        3.7127244809        2.2797521138
 H        -7.3876596847        3.9815433260        1.3599986098
 H        -7.4598453220        4.0276501113        3.1102402894
 H        -8.8688797931       12.7248487662        2.5132136178
 H        -9.6075258309       12.8447449182        1.0427002823
 H        -8.0273170270       11.8864446328        1.1935723172
 H       -10.4393924029       10.6871004088        3.8010360479
 H       -11.6213084625       10.3341379344        2.4831630415
 H       -11.0860050246       12.0565422416        2.9637426398
 H       -12.1159089055        8.0719311228       -4.9000973641
 H       -11.1987232918        9.3298776813       -4.2714183765
 H       -12.6652059851        8.9167413018       -3.5624438018
 H       -13.1270964468        6.5547879161       -2.9706042241
 H       -13.0053997969        7.5711051534       -1.5307334620
 H       -12.3317779631        6.0542989652       -1.6651815855
 H        -7.2897476379        2.9323173361       -4.2412120463
 H        -6.8422118342        2.7949151489       -2.5519468722
 H        -7.4103740516        4.3242675690       -3.1316597514
 H        -9.9574354833        0.7323053837       -3.4052884478
 H        -8.1864124585        0.6603502235       -3.0765672922
 H        -8.8864812071        1.2398812716       -4.5601103340
 H       -14.6606356953       -0.8691592190       -1.6025168951
 H       -13.1719837454        0.0293578675       -2.2346330436
 H       -14.3861716651        0.7507367871       -1.2399943625
 H       -15.1212830991       -1.2293359569        0.4093133241
 H       -14.4062884961        0.0885381013        1.3206306617
 H       -13.9282132546       -1.4605829480        1.7106170482
 H       -11.1701560844       -4.2351996846        3.9889841611
 H       -10.3427507773       -2.5934390875        4.2136404451
 H        -9.5513500705       -4.0560490951        4.7003453552
 H        -7.8361552198       -3.3453165150        3.5643287560
 H        -8.0884158231       -2.6020427101        1.9631710303
 H        -7.4447511682       -4.2615054048        2.2502654413
 Na       -8.8078955915        5.8240750932       -0.3585998891
