117

 C       -10.7073112076        2.6058211370       -6.0408177948
 C       -10.3284983669        1.4777758433       -5.0161343648
 O       -10.3080889020        1.6480961295       -3.8469578151
 C        -9.7491349134        0.1064874740       -5.5389304522
 C        -8.2579440846        0.0036414607       -5.4008853072
 O        -7.6993008516        0.1748731833       -4.3050774054
 C        -7.2651879153       -0.3946975505       -6.5346816528
 C        -6.1310865988        0.5462426201       -6.7930005116
 C        -6.5095536260        2.0183198926       -6.6037617854
 O        -7.6754273068        2.4379606039       -6.6376767455
 C        -5.2497840138        3.0796953883       -6.5269593891
 C        -4.4344494403        2.6976166104       -5.2685927464
 O        -4.3207698650        1.5334367873       -4.8222829201
 C        -3.6929582941        3.8967015065       -4.5933690474
 C        -4.4226177442        4.6905642779       -3.3817452105
 C        -5.2261691496        3.8030165212       -2.4104205954
 O        -5.8180310541        2.9018656359       -2.8804186691
 C        -5.2689725999        4.2399445024       -0.9048484465
 C        -6.3007363445        3.3353834984       -0.1407861910
 O        -6.2700906855        2.1223666753       -0.4479408139
 C        -7.3920315870        3.9023483906        0.7623914050
 C        -8.3650939986        2.9587825948        1.2698150469
 C        -9.5660391617        2.9307541093        0.3208333623
 O        -9.2767780633        2.7782885755       -0.8751524563
 C       -11.0417165196        3.4527104794        0.6605688286
 C       -10.7827331761        5.1488181503        0.8959063860
 O        -9.8983150680        5.7863391700        0.3085393931
 C       -11.8595666027        5.8827635579        1.7226542274
 C       -11.0891304597        7.2008452627        2.2300903035
 C       -11.1908766497        7.5558244612        3.6358741355
 O       -10.1842194645        7.7614932764        4.2820799146
 C       -12.5919456941        7.5793129230        4.4751769675
 C       -13.2855443616        6.2045903439        4.9441836008
 O       -12.6529748876        5.1826219315        4.8803473560
 C       -14.7052220330        6.0600742501        5.4737153982
 C       -15.0421542411        4.9974137235        6.5432494944
 C       -16.3896360610        4.3297081464        6.4765233287
 O       -17.2389464848        4.5743369489        5.6193613648
 C       -16.6528468769        3.2131239651        7.3746285442
 C       -15.9436815965        1.9063959018        6.4506931100
 O       -14.7619611796        1.7544192928        6.5667753768
 C       -16.8365897099        1.0590969563        5.5150086521
 C       -15.7944505687        3.3294091847        8.6376258513
 C       -18.0835948009        2.9112865484        7.6454649805
 C       -12.5210714293        8.3077655923        5.7719403535
 C       -13.6184490633        8.4321642477        3.5526089918
 C       -11.9102686085        3.3991526307       -0.5940105008
 C       -11.5231236920        2.7438571364        1.9787394476
 C        -3.8167545322        3.9862933748       -0.3436399998
 C        -5.5495697643        5.7568856892       -0.8506963486
 C        -4.4282255817        3.0609164211       -7.8924969292
 C        -5.8582280628        4.4959771542       -6.4451321606
 C       -10.2021165301       -0.9799414253       -4.4782764272
 C       -10.2704165955       -0.1648596090       -6.9930419827
 H        -9.7115780308        2.7055987612       -6.3619862767
 H       -11.1705670994        3.3327829095       -5.4943266347
 H       -11.3563988259        2.3062793431       -6.8772526578
 H        -7.6707429162       -0.6189426899       -7.4973733147
 H        -6.9179100258       -1.2860264652       -6.0398792189
 H        -5.7409475055        0.4490322005       -7.8373856099
 H        -5.3552760195        0.2285512049       -6.0938475854
 H        -3.2956518997        4.6487523897       -5.2220305324
 H        -2.7607365037        3.3939462412       -4.1853450749
 H        -5.0606226878        5.3567219955       -3.8973778443
 H        -3.5888187870        5.2622335383       -2.9175296330
 H        -7.8090289714        4.7290464191        0.3006842756
 H        -6.8393658722        4.2829721753        1.6156821395
 H        -8.6812699943        3.4639178598        2.3253245651
 H        -7.8010154205        2.0085993879        1.3457376130
 H       -12.2254724776        5.2813000482        2.5335159661
 H       -12.7402623205        6.1469119588        1.1755594293
 H       -11.6250597951        7.9178470509        1.8103214247
 H       -10.0490245958        7.1925194195        1.9478828613
 H       -15.5181471552        5.8752652017        4.6636177934
 H       -15.0387488290        6.9902620721        5.9513076571
 H       -14.7332427238        5.3307595382        7.5121982147
 H       -14.2356222389        4.2205472408        6.5833592946
 H       -17.9056354721        1.4016414328        5.5168446021
 H       -17.0527282337       -0.0222207896        5.7527319423
 H       -16.6275069096        0.7292335605        4.4879896511
 H       -15.8265044716        2.3998072216        9.0775412897
 H       -16.3474016428        4.1926397335        9.0016686749
 H       -14.7946150341        3.5013456874        8.2979203189
 H       -18.1551889718        1.9619933058        8.0864718117
 H       -18.5786000662        2.6548696813        6.6682703560
 H       -18.6407849792        3.5539047702        8.3480330806
 H       -12.6265248516        9.4500969930        5.6355666985
 H       -11.6271757895        7.9105213129        6.4027310652
 H       -13.2910096872        8.0394027479        6.4435357986
 H       -14.5642160418        8.6976501425        3.9080451268
 H       -13.6563816106        7.8929071948        2.5701575332
 H       -13.2248253649        9.4619221075        3.3149991386
 H       -12.8847853424        3.7593683292       -0.5543506669
 H       -12.0208640742        2.2821581834       -0.8179353540
 H       -11.5183144989        3.9980193441       -1.3118718846
 H       -11.7974111520        1.7747251942        1.5604857856
 H       -12.4057237877        3.3062326357        2.3718894891
 H       -10.6495442885        2.4036448828        2.5895848818
 H        -3.2126165409        4.7342567633       -0.6910105996
 H        -3.3061345970        3.0941284908       -0.6066901766
 H        -3.8676115197        3.8411227247        0.7240621048
 H        -4.6822141381        6.3278461034       -1.2794508387
 H        -5.6220962584        6.0763191371        0.1895534058
 H        -6.4306535804        6.0884710279       -1.4175977170
 H        -3.5248472621        3.6517843996       -7.9206893145
 H        -5.1115388906        3.5418789740       -8.6455765422
 H        -4.1381735800        2.0173758250       -8.0376939077
 H        -6.6881506439        4.7100741773       -7.1087912853
 H        -5.1417874795        5.3224907056       -6.5935155998
 H        -6.2071045135        4.6344392406       -5.3576659512
 H        -9.5484316362       -1.8427804511       -4.5272541776
 H       -11.1670883185       -1.3119132985       -4.6914049520
 H       -10.2108227215       -0.5688294392       -3.5267339221
 H        -9.9150948741       -1.1143137997       -7.3399925156
 H        -9.9715237475        0.5663737421       -7.7308650574
 H       -11.3008073124       -0.3624472008       -6.8871981299
 Na       -7.8157557182        1.5150542653       -2.2246338806
