117

 C       -10.6163586050        2.4872857836       -6.0594470266
 C        -9.9483661590        1.5364286226       -5.0008658005
 O        -9.8036221781        2.0255093510       -3.9421882862
 C        -9.7878873476       -0.0133184312       -5.2191657456
 C        -8.2373175898       -0.3763846670       -5.1582180461
 O        -7.6726521985       -0.0887413070       -4.0996595990
 C        -7.3954142986       -0.7631756136       -6.4145266398
 C        -6.0515991213       -0.1525786705       -6.1714097114
 C        -6.2245660056        1.3581241115       -6.5110112392
 O        -7.3121470727        1.9115627050       -6.7027065325
 C        -4.9388252986        2.3892112879       -6.4385267351
 C        -4.3749691007        2.3306410862       -4.9170245220
 O        -4.0587665283        1.2410642675       -4.4468656698
 C        -3.7428215135        3.5402249436       -4.1677250119
 C        -4.7071325403        4.6060745574       -3.6413488992
 C        -5.7001814018        4.0244731088       -2.7239336768
 O        -6.4866734898        3.2461807628       -3.1729079550
 C        -5.6366776097        4.2780627197       -1.1365800863
 C        -6.5986875609        3.3035376151       -0.2861509889
 O        -6.7949405692        2.1839674090       -0.8126713820
 C        -7.1445769733        3.5575124681        1.1406563214
 C        -8.2692993693        2.6651511806        1.5101708627
 C        -9.3283574673        2.7580066425        0.3734799992
 O        -9.3618400709        1.7887262365       -0.4015630073
 C       -10.5579080130        3.7938943758        0.4198579106
 C       -10.4320506029        5.1855722550        1.0398833134
 O        -9.5479831147        5.9742167143        0.6868659252
 C       -11.8481060098        5.8565326601        1.2432081071
 C       -11.7115139638        7.3079771170        1.7402272998
 C       -11.2782314053        7.4327016741        3.1294680006
 O       -10.1246338323        7.3775109998        3.4496149237
 C       -12.4012806582        7.8564976991        4.4505143019
 C       -13.0889681125        6.4697872300        4.9360437994
 O       -12.6038109647        5.4692251527        4.5123693484
 C       -14.2720410559        6.4474741700        5.8110088247
 C       -14.7706310744        4.9976851725        6.0193477035
 C       -16.2244001477        4.8084684239        6.1728946727
 O       -16.9899702712        5.3088941670        5.3725732361
 C       -16.8517598718        3.7476646288        7.4420201944
 C       -16.4702124434        2.3066455248        7.1131776468
 O       -15.3659909881        2.0402071045        6.7726404491
 C       -17.5554939719        1.3398702818        7.0291414275
 C       -16.1569810060        4.1905736016        8.8281796724
 C       -18.3756394915        4.0851564479        7.4597389173
 C       -11.6352599332        8.3805165929        5.5884682542
 C       -13.4466940874        8.8199721924        3.8032741883
 C       -11.0870547525        3.9967170468       -1.0127600717
 C       -11.7599083835        2.8789244984        1.0680080562
 C        -4.2178655274        4.0658695502       -0.5470421257
 C        -6.0578450155        5.6804627131       -0.9676038442
 C        -3.9271707399        1.9207343321       -7.4642045082
 C        -5.4325317281        3.7680006313       -6.8874659056
 C       -10.4710664069       -0.8487317931       -4.1765220074
 C       -10.3071322094       -0.2914196228       -6.6773777534
 H       -10.2404494734        2.1877228521       -7.0697660258
 H       -10.5741014134        3.4832508165       -5.5895903710
 H       -11.7269750219        2.2782314947       -6.0577597230
 H        -7.7599040062       -0.4032315997       -7.3652987308
 H        -7.3095363751       -1.8386865709       -6.6178923548
 H        -5.3519710757       -0.5588929484       -6.9256471685
 H        -5.6964297129       -0.2475724585       -5.1645372208
 H        -3.1395204808        4.0376948489       -4.9146784133
 H        -3.2063509440        3.1851262960       -3.2740333578
 H        -5.1111104861        5.1900620308       -4.4738691328
 H        -4.1170965198        5.4183605320       -3.1764308904
 H        -7.4651439121        4.5993856216        1.1550305704
 H        -6.0873600498        3.4748972114        1.6572890434
 H        -8.8422596848        2.7853309273        2.4112683042
 H        -7.9958534820        1.6893361045        1.5541655309
 H       -12.5639370195        5.3583537308        1.9418567109
 H       -12.2064807607        5.8402472849        0.1766292882
 H       -12.6363285607        7.7493266187        1.4675159881
 H       -10.9038094274        7.8988696962        1.1483154444
 H       -15.0495387642        7.0737155988        5.4257031753
 H       -14.0855598345        6.8759265234        6.7053902299
 H       -14.2994246919        4.7233568608        7.0026885121
 H       -14.1788246650        4.3952441556        5.2671513571
 H       -18.0185566251        1.2284935461        6.0604110552
 H       -18.2419614698        1.4882915833        7.8349893901
 H       -17.2980974734        0.3693754381        7.2749939523
 H       -16.7665812972        3.5696446211        9.4245205063
 H       -16.5523706746        5.1647514272        9.1328036230
 H       -15.0926971744        4.0487659721        8.6730765419
 H       -18.9859454998        3.7821823710        8.2328549377
 H       -18.8653478325        3.8692784710        6.4860046958
 H       -18.4760076786        5.1622536686        7.2888509489
 H       -11.5747259914        9.4325777462        5.5918608645
 H       -10.5751159289        8.1134763978        5.5660657054
 H       -12.0646047525        8.1198484607        6.4417798717
 H       -14.2091220141        8.8972536469        4.4990320272
 H       -13.9214153128        8.2872688042        2.9909196306
 H       -13.1414558643        9.8082431120        3.3602376688
 H       -12.1018510693        3.6304189059       -1.1234899914
 H       -10.6057433453        3.1931054976       -1.7351787241
 H       -10.8583334560        5.0412224442       -1.3321900008
 H       -11.9466009891        1.9996465257        0.4946525148
 H       -12.6689056184        3.4784135894        0.9445253804
 H       -11.5952043110        2.9318993057        2.1272514088
 H        -4.2173113956        3.3357613334        0.2832087263
 H        -3.9193308862        4.9121807039        0.1499758874
 H        -3.5590076947        3.6291804485       -1.3685035202
 H        -6.9318641411        5.9254651933       -1.5333785022
 H        -5.3359206228        6.3757755696       -1.2878653065
 H        -6.1782057734        5.9811961095        0.0334725174
 H        -3.0675187109        2.5393649183       -7.4635890137
 H        -4.3851253495        1.8451059917       -8.5086793346
 H        -3.6502589269        0.8765149539       -7.2375938116
 H        -6.1435066907        3.6853046393       -7.6786037710
 H        -4.6693191397        4.5233210862       -7.1417571615
 H        -6.0571898649        4.1397829551       -6.0097702648
 H        -9.9290816246       -1.8792815715       -4.2155450057
 H       -11.6019691552       -1.0323271669       -4.3543518802
 H       -10.2023186165       -0.6327231733       -3.1126095026
 H       -10.0041497569       -1.3116885187       -6.9197627639
 H        -9.9787434452        0.3826775080       -7.4796405803
 H       -11.3571173065       -0.0621847341       -6.7754455839
 Na       -8.1792472533        1.5695584939       -2.4642212473
