117

 C       -10.2201873209        2.1486950923       -6.4556781730
 C        -9.7034841945        1.5294615450       -5.1730621641
 O        -9.1781420497        2.3146720849       -4.4194673983
 C        -9.7826531709       -0.0338875127       -4.8558047160
 C        -8.2324099674       -0.3862305544       -4.7691785383
 O        -7.7286790481       -0.2714519245       -3.6988966001
 C        -7.4206886666       -0.8468607830       -5.9379976192
 C        -6.0112210905       -0.3688835165       -5.8125824561
 C        -6.0767452871        1.1247383386       -6.2953238720
 O        -7.0909602466        1.7151691949       -6.5109043329
 C        -4.5918313885        1.9184694327       -6.3565438294
 C        -4.4342178125        2.2037021393       -4.7771969640
 O        -4.6462983954        1.2798111889       -3.9824473017
 C        -3.9405364160        3.6096129476       -4.3444083506
 C        -5.1143010687        4.4187134809       -3.8674434001
 C        -5.9774745346        3.6745454240       -2.8266003194
 O        -6.6848586259        2.7800181784       -3.2915295742
 C        -5.8940370956        4.2160630492       -1.2728260986
 C        -6.6164686582        3.1605155682       -0.3713295783
 O        -6.4851160888        1.9745719948       -0.5566880947
 C        -7.3191167400        3.6709563758        0.8669231788
 C        -8.5153843640        2.7581690208        1.1968222128
 C        -9.7052122949        2.6870513114        0.1287432398
 O        -9.6796106772        1.8070789215       -0.7239494753
 C       -10.9074407574        3.5608877130       -0.0286382078
 C       -10.7429632625        5.0699329110        0.6628568345
 O        -9.6312221249        5.6018504346        0.5845427280
 C       -11.9258124302        5.8367900829        1.2273972844
 C       -11.4130364490        7.2243107344        1.6279042156
 C       -10.9912241015        7.4483253469        3.1171321126
 O        -9.8742400799        7.7748834186        3.3464470348
 C       -12.0687929481        7.6081892640        4.2752546230
 C       -12.9271983772        6.1908152143        4.5116569682
 O       -12.4650988350        5.0837258836        4.2138150984
 C       -14.2266994903        6.3920888965        5.3073744648
 C       -14.6641957580        5.1004929870        5.9908305264
 C       -16.1568502469        5.3008346507        6.2158524600
 O       -16.7921124056        6.1128479833        5.5022092226
 C       -16.9310675637        4.6457508266        7.4382082911
 C       -16.7317774021        3.0733107532        7.3178403574
 O       -15.7259614111        2.5395236321        6.8372389674
 C       -17.7260540596        2.1747873272        7.9820989927
 C       -16.3914501716        5.2169170445        8.8417160302
 C       -18.3649402905        5.0131569794        7.3251313900
 C       -11.3953155554        7.7085527699        5.6816821731
 C       -13.0012992068        8.8710413108        4.0299781243
 C       -10.9739902104        4.0569446390       -1.4721619979
 C       -12.1348966361        2.6724557131        0.6229223740
 C        -4.4093755393        4.2353058323       -0.8517401534
 C        -6.5031004345        5.6610107079       -1.1863022864
 C        -3.4951158979        0.9445280508       -6.7530798141
 C        -4.7359116416        3.1827126588       -7.1423184929
 C       -10.6101441940       -0.3347769880       -3.6418870281
 C       -10.4205660260       -0.8655939325       -6.1013081509
 H        -9.3282714194        2.4288443495       -6.9034127082
 H       -10.8603742334        2.9916282992       -6.2558201631
 H       -10.6315170153        1.2919636712       -7.0203356623
 H        -7.9058799260       -0.5349204943       -6.9394722341
 H        -7.3521764661       -1.8679774645       -6.0123578047
 H        -5.3397444631       -0.9666830921       -6.4314094436
 H        -5.6603674183       -0.4057926272       -4.7624019571
 H        -3.4066826086        4.1152191454       -5.2176271102
 H        -3.2188049519        3.6231848585       -3.5489372600
 H        -5.7923775460        4.5434456504       -4.7694297705
 H        -4.8005039629        5.3447956335       -3.4075028086
 H        -7.6202076248        4.7645119440        0.8324667436
 H        -6.6522562616        3.5856333985        1.7284052709
 H        -8.7700677746        3.0581760740        2.3516223743
 H        -8.2268445792        1.6750239359        1.3379057167
 H       -12.1896206535        5.3026419596        2.1800536133
 H       -12.6354990052        5.8347910977        0.3356414913
 H       -12.2396294758        7.8435963948        1.6047621915
 H       -10.7383396546        7.5999267379        0.8585643722
 H       -15.1751841854        6.5979221826        4.7474840775
 H       -14.1426752393        7.2089759326        6.1042100473
 H       -14.3902406506        4.8940703535        7.0456718045
 H       -14.5142572288        4.2833123511        5.2419865326
 H       -18.7114339082        2.6012533924        7.7696137490
 H       -17.5786611689        2.3500936274        9.0765987396
 H       -17.6654702544        1.2015576459        7.5819681858
 H       -16.6527701593        4.6185294398        9.5985524778
 H       -16.6499278288        6.2784821254        8.7362075423
 H       -15.3176138198        4.9829797983        8.7485859878
 H       -18.8507513899        4.5675457809        8.1993114237
 H       -18.8173363144        4.4216227305        6.5813552477
 H       -18.6816834394        6.0226897715        7.2834751115
 H       -10.3795807408        8.1263435097        5.7071744268
 H       -11.4121793291        6.7164370766        6.1545249031
 H       -11.9230592399        8.3355093683        6.3803247925
 H       -13.7452380184        9.0427686682        4.8341284525
 H       -13.4635394641        8.9188662567        3.0725170746
 H       -12.3058622460        9.6435600890        4.1664545574
 H       -10.3950344190        3.4220226879       -2.0736236213
 H       -10.2497027552        5.0108981756       -1.5072637945
 H       -11.9675052424        3.9386267328       -1.9641947230
 H       -11.9292602211        1.7164433418        0.3327650939
 H       -13.1445047351        2.9633720110        0.5200701374
 H       -11.8518040578        2.6552259338        1.7103383884
 H        -4.4348030094        4.5451153321        0.1962624465
 H        -3.8816148411        4.8171657512       -1.5841964282
 H        -4.1078970604        3.1622897007       -0.7009119524
 H        -7.3792532029        5.7974205108       -1.7791826858
 H        -5.7724571374        6.4931370061       -1.4335985673
 H        -6.8632237365        5.7572112249       -0.1693839907
 H        -2.4919766121        1.3200256957       -6.9286442993
 H        -3.7518672084        0.4789573705       -7.7292167290
 H        -3.5072191985        0.0928768693       -5.9721033703
 H        -4.9320508213        2.9876171551       -8.1945473000
 H        -3.8413901263        3.6878442574       -7.1246463801
 H        -5.5710021263        3.7387369217       -6.6735936584
 H       -10.3480413939       -1.4091238555       -3.3145298442
 H       -11.7007090443       -0.4563828925       -3.8504591001
 H       -10.5793015859        0.3661287579       -2.8040132140
 H       -10.4457229125       -1.9659268867       -6.0393768883
 H        -9.9208150978       -0.6607623630       -7.0515844483
 H       -11.5236401407       -0.7179504716       -6.1675367470
 Na       -8.1289388855        1.5940611112       -2.3421566203
