117

 C       -10.0101152182        1.9901432622       -6.6884551545
 C        -9.6675853419        1.4936643841       -5.2661734413
 O        -9.4670645778        2.3136551006       -4.3713691536
 C        -9.7625427957       -0.1052215582       -4.8940057333
 C        -8.3506976201       -0.5018535050       -4.7565538268
 O        -7.7406170124       -0.2195358681       -3.6892644016
 C        -7.6278749694       -1.1853031678       -5.8859563351
 C        -6.0824118403       -0.6320132564       -5.8959209548
 C        -5.9265893770        0.9441807740       -6.2483611942
 O        -6.9001334008        1.5163716948       -6.7231448669
 C        -4.6418297546        1.7241193037       -6.1616784120
 C        -4.3093333548        2.1608020047       -4.5454898079
 O        -4.1036353462        1.3456830031       -3.7323837807
 C        -3.9983387050        3.6569801476       -4.3194524376
 C        -5.1374931426        4.5972163160       -3.8422103123
 C        -5.8405167493        3.7629992770       -2.7683325105
 O        -6.5571278770        2.8167390892       -3.0563954724
 C        -5.8936658378        4.3156026622       -1.2296663348
 C        -6.6429408142        3.2589306767       -0.3538053858
 O        -6.5404039633        2.0438657473       -0.5620323956
 C        -7.6081524606        3.6387276368        0.8128843207
 C        -8.6765524743        2.5472881670        1.0964358448
 C        -9.7659209911        2.5126822221       -0.0211250852
 O        -9.7640681289        1.6250423586       -0.8586661034
 C       -10.8845472758        3.6453666891       -0.1046998828
 C       -10.5774660476        5.0731552154        0.5702556538
 O        -9.5766809380        5.6890626822        0.4372021931
 C       -11.7670108274        5.8217154585        1.2671944507
 C       -11.5421345512        7.3425291890        1.7246154515
 C       -10.8329234888        7.4315331210        3.0885630453
 O        -9.6057629225        7.6186674086        3.2229083768
 C       -11.8996719630        7.5074826866        4.3726513837
 C       -12.8162889699        6.1605086254        4.4702215659
 O       -12.5024584355        5.0461360932        3.9766794533
 C       -14.2053111142        6.4700130233        5.1890531679
 C       -14.7740221841        5.3152282728        5.9537870767
 C       -16.4524394606        5.5377592673        6.1449465110
 O       -17.0220436018        6.3312119428        5.4849619392
 C       -17.0329450845        4.8278599510        7.3731134913
 C       -16.8458573539        3.3284533859        7.4631124983
 O       -15.8785538839        2.8467156640        6.8692013399
 C       -17.7553545470        2.3720288678        8.3984181555
 C       -16.2625003288        5.3763109880        8.7869189464
 C       -18.5614563758        5.2187581568        7.4397954448
 C       -10.9088672213        7.6005441359        5.6186138592
 C       -12.7958878489        8.7479319230        4.0604164982
 C       -11.5012120261        4.0422552461       -1.6418226409
 C       -12.0950839469        2.9754921563        0.5964253659
 C        -4.3345087394        4.4280809637       -0.8573260057
 C        -6.6052658930        5.7768094068       -1.3119705305
 C        -3.4399754145        0.6407506698       -6.4975528370
 C        -4.6987407431        2.8789870787       -7.3187670898
 C       -10.4986661243       -0.1791288713       -3.4710089565
 C       -10.5550067190       -0.9094464413       -5.9524205975
 H        -9.0643411774        2.1602070097       -7.2370473061
 H       -10.2608619964        2.9932044630       -6.3494248128
 H       -10.7823181957        1.3693761381       -7.1124272989
 H        -8.0553204555       -0.9790508005       -6.8201499433
 H        -7.6784248930       -2.3722735666       -5.7971842844
 H        -5.4536843980       -1.1986445695       -6.6198025003
 H        -5.5776248145       -0.6077985311       -4.9299637385
 H        -3.5683646911        4.0460620688       -5.2003126575
 H        -3.1300954166        3.7582703989       -3.6095390632
 H        -5.8456652158        4.6448288091       -4.5984573393
 H        -4.7455097268        5.5550929797       -3.4506306063
 H        -7.9886744862        4.6194122279        0.6450752279
 H        -6.8481994833        3.6988556022        1.5967285864
 H        -9.2212088752        2.6346091532        1.9257358332
 H        -8.1902718667        1.6091710528        1.2105931333
 H       -12.0092098300        5.3643543287        2.1815969616
 H       -12.4629722681        5.7874105295        0.4922890817
 H       -12.6312855882        7.8027641605        1.5662996829
 H       -10.8250717244        7.8689428544        1.0519662047
 H       -14.7465677831        6.9217449557        4.2719253865
 H       -14.1096833821        7.1938434497        5.9632965063
 H       -14.2793735906        5.2860259045        6.8961821049
 H       -14.7535850311        4.4099071348        5.4052103865
 H       -18.8632012224        2.5149361216        8.3581000982
 H       -17.4238291413        2.6948787999        9.3866169435
 H       -17.4103944262        1.3759895454        7.9448953941
 H       -16.8753326483        4.6459721845        9.4092551077
 H       -16.4083020230        6.4042857370        8.7593159028
 H       -15.2812842932        5.0515989023        8.9650818093
 H       -19.1114716796        5.0387648009        8.3939866246
 H       -19.1736678303        4.6702729015        6.6895750353
 H       -18.6064537067        6.3253621624        7.3721169358
 H       -10.3896159609        8.5630161528        5.5228240545
 H       -10.3023410141        6.7406075762        5.8579823281
 H       -11.4817366756        7.7182941542        6.6499790616
 H       -13.0860436834        9.2195334290        5.0014002704
 H       -13.6787358024        8.3678134038        3.4355533209
 H       -12.2751519151        9.5869589887        3.5032283871
 H       -12.4447577968        3.5907798585       -2.0256483692
 H       -10.7302606475        3.8088383095       -2.2630136384
 H       -11.6862384790        5.1018801148       -1.7242183463
 H       -12.4392062183        2.0915805013       -0.0348099104
 H       -12.8778634336        3.7395681937        0.7118552188
 H       -11.8109148248        2.4171259973        1.4845056819
 H        -4.2361130326        4.2041497424        0.1992547639
 H        -4.0505217818        5.3405333942       -1.2786343552
 H        -3.8746944639        3.7299576347       -1.4764028584
 H        -7.6615146157        5.6448025324       -1.7790997072
 H        -5.9697789257        6.3982296766       -1.9627466368
 H        -6.8493420770        6.3060012399       -0.3575868213
 H        -2.6056864015        1.4043783730       -6.7447879538
 H        -3.5029960731        0.0298313713       -7.3991844673
 H        -3.0848499422        0.1280100644       -5.6255003838
 H        -5.3721735328        2.5586967207       -8.1567477359
 H        -3.5815153814        2.9734534091       -7.6950049700
 H        -5.0573224397        3.7799809356       -6.8630468450
 H       -10.3676286315       -1.0512837862       -2.9748684567
 H       -11.4944211643        0.0822889476       -3.4437283203
 H       -10.1465270037        0.6772331414       -2.9544362013
 H       -10.6393585496       -1.8996817491       -5.5432016924
 H       -10.1426562815       -1.1180147838       -6.9120080404
 H       -11.5762100472       -0.7400605628       -5.9364752497
 Na       -8.2398800214        1.2577824042       -2.2672284046
