117

 C        -9.9283729785        1.8249737069       -6.7162724139
 C        -9.8376328676        1.5163028565       -5.1952953038
 O        -9.5370171587        2.3278401414       -4.2925957859
 C        -9.8510373296       -0.0643103861       -4.8977716324
 C        -8.3301192201       -0.5789322060       -4.7399636676
 O        -7.6658986531       -0.3936809477       -3.7461265543
 C        -7.5162109938       -1.2978720632       -5.8872521231
 C        -6.0054272533       -0.7400886312       -5.9307197881
 C        -5.9699959159        0.8196973144       -6.2628794324
 O        -6.9022909684        1.3269884789       -6.7800441049
 C        -4.5310424348        1.6211861496       -6.0610012284
 C        -4.1319608385        2.1863931074       -4.6960438960
 O        -3.9390731220        1.4159846417       -3.7806417637
 C        -3.8882942898        3.7011855476       -4.3428123162
 C        -5.1287644153        4.5210184361       -3.8461336553
 C        -5.9918914589        3.8245132293       -2.7715291404
 O        -6.5582930336        2.7846485790       -3.1254270552
 C        -5.9355827995        4.3590923661       -1.3010304375
 C        -6.6401546459        3.2534687114       -0.3852022533
 O        -6.4792080904        2.1288899014       -0.6524953419
 C        -7.5638934211        3.6224559296        0.8550291572
 C        -8.7292536001        2.6746250559        0.9461703207
 C        -9.8633718944        2.6684243817       -0.1384233764
 O        -9.8764787580        1.7022265868       -0.8368303665
 C       -11.1103916406        3.7571890623       -0.1562861845
 C       -10.6077497227        5.1624471703        0.3503366050
 O        -9.4476564858        5.6206587711        0.2516341472
 C       -11.7733283267        5.8201675719        1.2114563637
 C       -11.5163484381        7.1708939781        1.7102419360
 C       -10.7826045435        7.3054886512        2.9796765614
 O        -9.5927380790        7.4591584523        3.1284518165
 C       -11.7888349740        7.4621315699        4.3031603365
 C       -12.7609197291        6.2546678257        4.5353886359
 O       -12.5729084688        5.1019663650        4.0537175540
 C       -14.2190383172        6.5058895313        5.1236041835
 C       -14.9082240128        5.2871346825        5.8963563174
 C       -16.4225960929        5.6373640923        6.2291473723
 O       -17.1070527855        6.3397198721        5.4868662671
 C       -17.1357817950        5.0403747879        7.5258076770
 C       -16.9278142639        3.3990393657        7.5097355726
 O       -15.9804908671        2.9248521618        6.8580862057
 C       -17.6256640154        2.5195525135        8.4913905344
 C       -16.3382776019        5.5161324071        8.7618391809
 C       -18.5769129680        5.3678675734        7.4673981215
 C       -10.8691096374        7.6321960552        5.5477105290
 C       -12.5000020565        8.7849199121        4.1629316379
 C       -11.5153607206        4.0022483389       -1.5704654744
 C       -12.2554085284        3.1133453786        0.7639230081
 C        -4.4709250439        4.5217859861       -0.6470119037
 C        -6.5775769408        5.7108441184       -1.1919509774
 C        -3.4262515233        0.5722082618       -6.3999023206
 C        -4.5553511225        2.6090278360       -7.1245520358
 C       -10.6573977165       -0.1620965784       -3.5201596997
 C       -10.6448324445       -0.8833748998       -5.8714484001
 H        -8.9256165689        1.5614547944       -6.9730689734
 H        -9.8458816779        2.9547279043       -6.7943543478
 H       -10.7939459991        1.2072220335       -7.2133312452
 H        -7.9013526436       -1.1823550909       -6.9434390851
 H        -7.5038408877       -2.3180647648       -5.6580119513
 H        -5.4926013085       -1.1433125604       -6.7903551541
 H        -5.3812026998       -0.8791099960       -5.0582932695
 H        -3.5471042982        4.3169244783       -5.1518701561
 H        -3.0383481836        3.7824738871       -3.6610041061
 H        -5.7859849226        4.6039597260       -4.7121827321
 H        -4.7177124687        5.4767470789       -3.4766507725
 H        -7.8397446583        4.7405811307        0.6788848935
 H        -6.8057487717        3.5852111998        1.6419454853
 H        -9.4415665866        2.6971423967        1.8064002957
 H        -8.3504199576        1.7290058263        0.9219592385
 H       -11.8253592928        5.2812158590        2.1580378256
 H       -12.6510793447        5.8381699088        0.6060364193
 H       -12.5828460165        7.5241073997        1.7434077528
 H       -10.9825235956        7.8070548672        1.0183932378
 H       -14.6098937861        6.8415092228        4.2605792689
 H       -14.2563449342        7.2668735635        5.9253053845
 H       -14.3286000900        5.0326305465        6.7940770715
 H       -15.1319813709        4.4497628965        5.1697364343
 H       -18.6253992652        2.6648045821        8.1698361838
 H       -17.5720792557        2.9977284235        9.4683458261
 H       -17.2890166049        1.5394767426        8.1807840784
 H       -16.7769476074        5.1104798371        9.6427418208
 H       -16.0928903949        6.5537642550        8.5396450965
 H       -15.3801159357        4.9327898056        8.6597854347
 H       -19.2360783745        5.1976915160        8.4289323254
 H       -19.0705387519        4.7932105587        6.6951945553
 H       -18.6482707007        6.4598280143        7.4072810266
 H       -10.6285996626        8.6729789950        5.6432546236
 H       -10.0314478842        6.9945800156        5.6106112469
 H       -11.3568888098        7.3364981941        6.5016012070
 H       -12.5646444337        9.0303965699        5.2660169775
 H       -13.5266248907        8.5525785434        3.7832406262
 H       -12.1168058644        9.5846365101        3.6159127095
 H       -12.5315960430        4.0451613753       -1.7821212775
 H       -10.9824458455        3.2322941808       -2.2799160697
 H       -11.0686984485        5.0141140732       -1.9529153061
 H       -12.7418987112        2.1674321688        0.4998238144
 H       -12.9590247631        3.9779983173        0.8476799028
 H       -11.7147323684        2.7928575653        1.7416246555
 H        -4.8220720951        4.3467689254        0.4131541681
 H        -4.0744900076        5.4629989425       -0.9490060898
 H        -3.8245981874        3.7724662574       -1.1408725858
 H        -7.6153614340        5.5700084992       -1.1536642917
 H        -6.2803736772        6.2431437190       -2.1088589957
 H        -6.3451540592        6.3507563558       -0.3702577835
 H        -2.4795693529        1.1542612448       -6.3756745199
 H        -3.4600565264        0.1474089538       -7.3718924956
 H        -3.2850699339       -0.1488439837       -5.5718699943
 H        -5.0768732375        2.0602019056       -7.9814878155
 H        -3.5714474872        2.9237571578       -7.4377139984
 H        -5.2065026242        3.4482158984       -6.8050052316
 H       -10.3520115475       -1.0938658566       -2.9520684119
 H       -11.7245178290       -0.0932964963       -3.6100337749
 H       -10.5305660666        0.7335833363       -2.9426824262
 H       -10.7586571249       -1.9107206470       -5.5683570675
 H       -10.1684329130       -1.0298203916       -6.8426686555
 H       -11.6925401618       -0.6540687296       -5.9356173610
 Na       -8.1608679933        1.2321833280       -2.2348946645
