117

 C        -7.1803455322       -2.6544104026        9.1558483103
 C        -7.8656533997       -2.6811181252        7.7333751421
 O        -9.0669198954       -2.5863435731        7.5662406198
 C        -6.9370086133       -3.0030804977        6.5189372678
 C        -6.1785706527       -1.6950466115        6.2573099124
 O        -4.9606987774       -1.7281732580        6.3307877741
 C        -7.0692260440       -0.4084167442        6.0195370191
 C        -6.4241411986        0.9409973149        5.9726382648
 C        -7.2967272462        2.1516863178        5.2641046397
 O        -8.4737496967        2.0560535963        5.0377252299
 C        -6.5446654751        3.4951196144        4.8191827007
 C        -6.2621830239        3.2116555881        3.2541471113
 O        -5.2061863256        2.6463467423        2.9600987841
 C        -7.4238575582        3.7482103445        2.1973921547
 C        -7.1721628120        3.4242830022        0.7231338370
 C        -8.3820444235        3.3119528635       -0.1647095295
 O        -8.4744274827        4.1982287643       -1.0102237901
 C        -9.3298401725        2.1475726090        0.0911820571
 C       -10.5130210884        2.5921499639        1.0815367600
 O       -10.2950189458        3.3402490695        2.0323301822
 C       -11.8914200102        1.9647894457        0.8172087173
 C       -12.9350480971        3.1704866634        0.8181102376
 C       -12.3625431666        4.2675770084       -0.0297545507
 O       -11.1406826436        4.2599678884       -0.2856035223
 C       -13.1841590377        5.2986542831       -0.7173103510
 C       -13.2462940577        4.8928418335       -2.2485081753
 O       -12.2456795351        4.4559706748       -2.7502187907
 C       -14.5835119884        4.7142514803       -3.0047089349
 C       -14.5351479565        5.0025905904       -4.4459823066
 C       -14.2613680770        6.5629643329       -4.6802017599
 O       -14.5848703358        7.3142941933       -3.7780338710
 C       -13.6851366169        7.0184341952       -6.1398862308
 C       -12.2061682001        7.2198092487       -5.9766154798
 O       -11.3300029687        6.4338342766       -6.2922186065
 C       -11.9164624167        8.5869239884       -5.2453398558
 C       -10.4207315298        8.7392313732       -5.2751185088
 C        -9.6875862503        7.7133599220       -4.3320197361
 O       -10.2049144011        7.4273236071       -3.2720535326
 C        -8.3950885894        6.8053604577       -4.8439840120
 C        -9.1188183012        5.4612101389       -5.1906760023
 O        -9.4064229378        4.6822278103       -4.2980346631
 C        -9.0673342882        4.9756329319       -6.6495059091
 C        -7.7403303007        7.5589611796       -6.0322733108
 C        -7.4341469170        6.6374813892       -3.6571689579
 C       -14.0042363709        5.9094924393       -7.2294248003
 C       -14.4172110481        8.3459574728       -6.5526653278
 C       -14.5943039423        5.4631297288       -0.1595251735
 C       -12.4185511177        6.6953929586       -0.5068800045
 C        -9.9438238946        1.7184582066       -1.2758802242
 C        -8.6406634593        0.9473854543        0.7522088614
 C        -7.5874282895        4.6092597259        4.9707038936
 C        -5.2754450133        3.6709518789        5.6484550519
 C        -5.8652772500       -4.0267243028        6.8418356466
 C        -7.7497625053       -3.5831887684        5.3079014929
 H        -7.6727211050       -2.0686504432        9.8952271424
 H        -6.1813204039       -2.2602388593        9.2687221077
 H        -7.1123951232       -3.7087926884        9.4084925949
 H        -7.7144557215       -0.3390533925        6.8883838569
 H        -7.7446203426       -0.4869818763        5.2544431691
 H        -5.4260463733        1.0247817327        5.5347070826
 H        -6.1866152445        1.3869798045        6.9218904712
 H        -7.4258033615        4.8445282668        2.1880416131
 H        -8.3220624910        3.3701191297        2.6390109438
 H        -6.6317866022        2.4680760511        0.7206577011
 H        -6.5715216412        4.1621025320        0.2608073632
 H       -12.1624506861        1.2280179937        1.5354002919
 H       -11.8227181331        1.3456102750       -0.1319291028
 H       -13.1058146493        3.4773328940        1.7952260945
 H       -13.9109076009        2.9019345090        0.3970515599
 H       -15.2505573994        5.4553079704       -2.5779243707
 H       -14.9992246742        3.7732348252       -2.7508640017
 H       -15.5989460649        4.7735434311       -4.8891652717
 H       -13.7114872739        4.5047391612       -5.0260698933
 H       -12.1911072752        8.7309164435       -4.1815484479
 H       -12.3799728732        9.2674447153       -5.8970847232
 H       -10.0666584964        9.6854699236       -4.9447937891
 H        -9.9413583413        8.5190436031       -6.2660698421
 H        -9.3454049422        5.7684642191       -7.4001111181
 H        -9.6731696952        4.1233923458       -6.8574829883
 H        -7.9746957507        4.7938839251       -6.6958732655
 H        -7.1964304843        8.4387149903       -5.6880325748
 H        -8.2989174414        7.7329669445       -6.9520935197
 H        -6.9009111479        6.9617304643       -6.2961637941
 H        -7.9156894504        6.4841193711       -2.7480081567
 H        -6.7908182700        7.5860585749       -3.6845695681
 H        -6.7335255370        5.8046051658       -3.7511711727
 H       -13.3554445033        5.0480559913       -7.0783775624
 H       -13.9568413526        6.2767147996       -8.2413529045
 H       -14.9686481848        5.5717831979       -7.1119269309
 H       -13.8716288742        8.7745600404       -7.4186200600
 H       -14.5970095687        9.0867964709       -5.7537727136
 H       -15.4864973374        8.1064527831       -6.8522341275
 H       -14.6501956469        5.4113487255        0.8942515607
 H       -15.1760663749        4.6173297918       -0.5062663903
 H       -15.0594781666        6.2925407590       -0.5666821980
 H       -12.5355186451        6.9393060274        0.5798001020
 H       -12.8054809248        7.5003425883       -1.1152296812
 H       -11.3610968539        6.5798346138       -0.6140890565
 H       -10.4066147655        0.7772930482       -1.1546269123
 H        -9.2029248431        1.5731507121       -2.0151298069
 H       -10.6621551658        2.4437366446       -1.6599044925
 H        -8.5659795124        0.8089599452        1.8282831497
 H        -7.6253281795        0.7916955139        0.4792606985
 H        -9.1723053273        0.0251075490        0.3724918563
 H        -7.5928351664        5.1663278039        5.9049947741
 H        -8.5276498544        4.2039400883        4.7266182977
 H        -7.4383009487        5.3942326530        4.1758578740
 H        -5.4491382539        3.8239958157        6.7338836134
 H        -4.7671923437        4.5455246087        5.3640738452
 H        -4.5586685160        2.8371213485        5.5210733287
 H        -5.2183806509       -3.7554962020        7.6697375767
 H        -5.1822729797       -4.3040469039        5.9981929449
 H        -6.3573385197       -4.9237894044        7.1927853819
 H        -8.2070087441       -4.4488701259        5.7551002415
 H        -7.0691239339       -3.9502790424        4.6228682148
 H        -8.4637958727       -2.9170914709        4.8238440797
 Na      -10.0753329375        5.2528153895       -2.2403560471
