117

 C       -10.0575378058        1.6627152913       -6.5046148010
 C        -9.8122466741        1.0331258562       -5.1540217680
 O        -9.6589352465        1.7053693392       -4.1467357138
 C        -9.6847949072       -0.5091172904       -4.9073772459
 C        -8.2252489388       -0.8129064294       -4.5437752185
 O        -7.8511216847       -0.8848793269       -3.3418180801
 C        -7.2909518234       -1.3161647793       -5.5643346882
 C        -5.7713264579       -0.7548563242       -5.3976370007
 C        -5.5830545413        0.7015150790       -5.9408675859
 O        -6.4879199919        1.4772722111       -6.1531631873
 C        -4.0124587928        1.1215736344       -5.9803275271
 C        -4.0492892521        1.8158451715       -4.6731500851
 O        -4.4915720791        1.3438535024       -3.6821257110
 C        -3.6468864065        3.3705638294       -4.3828568902
 C        -4.9284627280        4.1869174039       -3.9828829184
 C        -5.8938339755        3.5461327507       -3.0890013433
 O        -6.5979558438        2.6619048598       -3.5140221136
 C        -6.0784971910        4.0592715710       -1.5808698963
 C        -7.0953800367        3.2907870023       -0.6563704166
 O        -7.0692426361        2.0539801003       -0.5501928908
 C        -7.8266554969        4.0335143491        0.5229043947
 C        -9.0933540477        3.2125958116        1.0858551832
 C       -10.0316614742        3.1097112385       -0.2849205824
 O        -9.6655533063        2.5825037499       -1.3036552263
 C       -11.6103192821        3.7606027493       -0.1450813735
 C       -11.1664405434        5.2511831745        0.2300097379
 O       -10.3098097360        5.7720971438       -0.3885302394
 C       -12.1160489962        6.1396824661        1.1251296433
 C       -11.5558773838        7.2625723502        1.9356331177
 C       -10.8768080405        6.7912777127        3.1749215081
 O        -9.8394853846        6.0929224051        3.1444279556
 C       -11.4690046935        7.3778312763        4.4919519177
 C       -12.8058961387        6.5482531678        4.4738196359
 O       -12.8601672713        5.5319588209        3.7512333896
 C       -14.0434938370        7.0220864744        5.3297045903
 C       -14.7727616449        5.6830377581        5.8324662309
 C       -16.4238741473        6.1435328290        6.0744671762
 O       -16.8225476029        6.8197561210        5.1934876426
 C       -16.9389295522        5.7773293515        7.4945455566
 C       -16.8154721904        4.1204862489        7.5764774124
 O       -16.3455602156        3.4404848391        6.6621236951
 C       -17.3503170215        3.5528741917        8.8675510796
 C       -16.1464422191        6.4727284111        8.6318087544
 C       -18.4087166604        6.2501573495        7.5535573397
 C       -10.4956345031        7.0826705873        5.7719238895
 C       -11.7253672520        8.9022821355        4.2939194214
 C       -12.5019879894        3.6983057986       -1.3649641152
 C       -12.2038701476        3.1048396137        1.0235315611
 C        -4.7490748278        4.0297288327       -0.7104137993
 C        -6.6571701676        5.4948790541       -1.8736912643
 C        -3.0265658321       -0.0437357081       -6.0240303593
 C        -3.7354290778        2.0349366125       -7.1905723710
 C       -10.6417022256       -0.7356924452       -3.7354624672
 C       -10.0758378061       -1.2330355720       -6.2015418142
 H       -10.7515121779        1.1355527769       -7.1065643104
 H        -9.1004470497        1.7641110560       -7.0699801463
 H       -10.3457553732        2.6013703409       -6.0331848565
 H        -7.6300979017       -1.0971555763       -6.5004568959
 H        -7.2253538112       -2.4870705409       -5.4444007128
 H        -5.0508960099       -1.5220430882       -5.7610114387
 H        -5.5069416788       -0.6837868773       -4.3325031085
 H        -3.2397652189        3.9874337053       -5.1766654342
 H        -2.8641899581        3.2614316399       -3.5858009912
 H        -5.5328984239        4.3570278153       -4.8981278704
 H        -4.7668854269        5.2333578599       -3.6152638353
 H        -8.2062698700        5.0164617958        0.2433499896
 H        -7.1188750838        4.1948225015        1.3859619357
 H        -9.4607245482        4.0185521627        1.8842520533
 H        -8.8722060452        2.1402651030        1.4970677478
 H       -12.7476002878        5.5636625763        1.8574443516
 H       -12.7061061070        6.4424018554        0.1925788586
 H       -12.4903970131        7.7446188389        2.2849643447
 H       -10.9965694251        7.9380850226        1.4359369630
 H       -14.8025085339        7.6048169461        4.6277150800
 H       -13.6088907986        7.5771959950        6.1199145097
 H       -14.1508722649        5.1130661112        6.6022192203
 H       -15.0015388852        4.9660335355        5.0204516984
 H       -18.2803827373        3.0839160400        8.7084294598
 H       -17.3835406739        4.4000302778        9.4822094365
 H       -16.4487500248        2.9366999496        9.1050253191
 H       -16.2897423782        5.7018173851        9.4915620724
 H       -16.6481995247        7.3435838437        9.0428858895
 H       -15.1797884517        6.6480567572        8.2327015470
 H       -18.8404203704        6.0713119714        8.5754350968
 H       -18.9886527506        5.6466202901        6.8769224899
 H       -18.5644603355        7.2832544857        7.2263833117
 H        -9.4838970118        7.0724192777        5.6365530318
 H       -10.6887109916        6.2428414967        6.3004747723
 H       -10.7480622845        7.9294500969        6.4563226352
 H       -11.9390359735        9.3991283629        5.1918801689
 H       -12.6154036517        9.0618351372        3.6684368930
 H       -10.8768272091        9.3142596438        3.7354326401
 H       -11.9401603637        3.5415013577       -2.2672238222
 H       -12.7533217660        4.7024310017       -1.7249074426
 H       -13.3711967995        2.9434951552       -1.2550586938
 H       -12.6637395453        2.1265414435        0.6508565040
 H       -13.1527671285        3.6254573833        1.2019066469
 H       -11.6385362590        2.9656993712        1.9334322900
 H        -5.1152721824        4.3311058397        0.3220357765
 H        -4.0856980889        4.8872281740       -0.9803859021
 H        -4.4246614937        3.0125085702       -0.9457439333
 H        -7.7336545208        5.3276496778       -1.9767248532
 H        -6.3173032742        5.9416789581       -2.7650202376
 H        -6.4368219244        6.0984499052       -1.0420685897
 H        -1.9664179517        0.3292148074       -6.0008550311
 H        -3.1226356455       -0.5434716910       -7.0202474384
 H        -3.0985733813       -0.7718560500       -5.2418202298
 H        -4.1286540315        1.5477765854       -8.0464459568
 H        -2.6217101185        2.1474553579       -7.1573315828
 H        -4.1885544262        2.9255283847       -6.9605941308
 H       -11.0119911208       -1.8048305329       -3.6513740360
 H       -11.5171022514        0.0000844636       -3.6925096393
 H        -9.9430898308       -0.7433666278       -2.8091120605
 H       -10.0276400187       -2.3234431144       -6.1666397840
 H        -9.7149786366       -0.9475197663       -7.1812575604
 H       -11.1089294854       -0.9877583991       -6.3702410235
 Na       -8.0855509621        1.1620452328       -2.2471252317
