117

 C       -10.7303814302        0.9341648579       -6.8440859530
 C        -9.9231280047        0.5977971822       -5.4666073444
 O        -9.7041998212        1.4937041297       -4.7395920725
 C        -9.5128635278       -0.9420008307       -5.0481618502
 C        -8.0616960824       -0.9846665515       -4.5749907827
 O        -7.7324470025       -0.2315104823       -3.6291187962
 C        -6.8959843056       -1.7095794971       -5.2121525238
 C        -5.4643142651       -1.2911048980       -4.9060039735
 C        -5.0735664768       -0.1440568620       -5.8869568603
 O        -5.7300034656        0.2713646563       -6.8232934890
 C        -3.6118690076        0.6013549193       -5.6355543747
 C        -3.5972623851        1.1762904847       -4.2048611670
 O        -3.4717702420        0.4539205605       -3.2984544389
 C        -3.4187257989        2.6469349910       -3.7634775291
 C        -4.7192768860        3.5112197861       -3.9388429265
 C        -5.9446350625        3.4062125347       -3.1163604747
 O        -6.9340229194        2.8707591592       -3.4927359566
 C        -6.0373464261        4.1785603125       -1.6888102638
 C        -7.1095000668        3.5386140600       -0.7920316344
 O        -7.0355994096        2.3512750754       -0.3404489008
 C        -8.4059054713        4.3535079263       -0.2318748435
 C        -9.3553610612        3.4509345212        0.5689487942
 C       -10.5710001098        3.1713850637       -0.1064810971
 O       -10.6737309176        2.3442255954       -1.0507590981
 C       -11.9357666849        4.0254011543        0.1719885810
 C       -11.6425475386        5.5404383624       -0.1324063487
 O       -10.8901043045        5.8118114402       -0.9900062005
 C       -12.4207422569        6.7486188095        0.5326118883
 C       -11.7984268752        7.5032325002        1.7976793743
 C       -11.0272276070        6.6944040624        2.8437270203
 O       -10.2139680210        5.7716320501        2.5800121180
 C       -11.1336826278        6.8735655037        4.3054168695
 C       -12.8199356764        6.5602915916        4.3535711703
 O       -13.2125308010        5.5477548474        3.7684670146
 C       -13.8345407233        7.2469747057        5.2604032311
 C       -14.7916469357        6.2092877670        5.9854035511
 C       -15.9874333913        7.0381111305        6.2755409851
 O       -16.2945540848        8.0571079546        5.7481345498
 C       -16.7860789037        6.5879211959        7.6335268323
 C       -16.9469462041        5.0168933750        7.8840054309
 O       -16.8828170430        4.2781397701        6.8732297958
 C       -17.3551850356        4.5239585140        9.2692910389
 C       -16.2204706117        7.5349865189        8.7867557831
 C       -18.3600206822        7.1395910427        7.4660910578
 C       -10.4106340000        5.8849762932        5.1784049055
 C       -10.9469681726        8.3162580593        4.7202453977
 C       -13.2339029831        3.8298263458       -0.7386291396
 C       -12.0963075547        3.6901563622        1.5952485435
 C        -4.6369264381        4.2728991521       -0.8905169700
 C        -6.5843748933        5.6049442932       -1.9580616713
 C        -2.5559445062       -0.5199497467       -5.7651447937
 C        -3.3556720019        1.7030405920       -6.7653546116
 C       -10.5362597138       -1.3363820447       -3.9639612611
 C        -9.7515351874       -1.7940679965       -6.4150130580
 H       -11.6076442598        0.4219804605       -6.8938630766
 H       -10.0385078805        0.7074869323       -7.6566694010
 H       -10.9730824753        2.0294336292       -6.9151651452
 H        -7.0024814830       -1.6513084913       -6.2231132589
 H        -7.0498591347       -2.8062534481       -4.9545161059
 H        -4.9062910673       -2.2248891130       -4.9281694181
 H        -5.2695315542       -1.0563975828       -3.8004777616
 H        -2.7298950221        3.0929485606       -4.4831867872
 H        -3.0902626390        2.5550781858       -2.7259901208
 H        -4.9487212300        3.5291473786       -5.0026691326
 H        -4.4506082893        4.5312453701       -3.7386036054
 H        -8.8549739308        4.8470577551       -0.9996644405
 H        -8.2367551755        5.1869514949        0.4988842035
 H        -9.4595078332        3.9113190418        1.6146374873
 H        -8.8081456146        2.5587716364        0.6640301428
 H       -13.3275008841        6.4500892028        0.9765707446
 H       -12.7007904261        7.3394076298       -0.3047430283
 H       -12.7511154006        7.8145664253        2.4712338884
 H       -11.1968658641        8.3689872092        1.5565492028
 H       -14.5518896780        7.8797204970        4.6601426076
 H       -13.4380477224        7.8727908621        5.9168534753
 H       -14.5084118927        5.5126218250        6.7652387400
 H       -15.1154756671        5.4373403880        5.2998418795
 H       -17.6330630750        3.4940418966        9.2058887279
 H       -18.1725605738        5.1584298564        9.5729092464
 H       -16.5468274332        5.0324197664        9.8692724610
 H       -16.5493973537        7.0659954675        9.7897693073
 H       -16.5655262543        8.5358505431        8.5675109555
 H       -15.1713889974        7.4742080563        8.8743217705
 H       -18.8924718615        6.9564769881        8.4385112906
 H       -18.9544051518        6.7759227626        6.6845991881
 H       -18.3402790549        8.1911320257        7.3438717148
 H        -9.3072098635        6.0568188817        5.0081222950
 H       -10.6820165807        4.8244605322        5.0591286248
 H       -10.5577587699        6.1812555335        6.3076136997
 H       -11.5739048229        8.5086691604        5.5313467581
 H       -11.2771008047        8.8505749985        3.8377720385
 H        -9.9470640562        8.6376992476        5.0102414606
 H       -13.1155681429        4.4471555259       -1.5202293692
 H       -14.2060147409        3.8704910807       -0.2355748486
 H       -13.2786070635        2.9259083305       -1.3404160366
 H       -12.7826207432        2.8570414960        1.5280835459
 H       -12.3978692893        4.4630772925        2.2107825321
 H       -11.2777926258        3.3019602613        2.1064110382
 H        -4.8861475880        4.8266933121       -0.0125849707
 H        -3.9431011003        4.6981132882       -1.5395281495
 H        -4.4883438397        3.3592801288       -0.4356482965
 H        -7.6369033905        5.5524901034       -2.4147069740
 H        -5.9448665480        6.1197305271       -2.6993028868
 H        -6.6535834420        6.1922057012       -0.9953345987
 H        -1.5618021394       -0.0843935600       -5.3768403700
 H        -2.3878678350       -0.9855513825       -6.7770613826
 H        -2.7956610795       -1.4161675697       -5.1754247334
 H        -3.4029520228        1.1963514843       -7.7557704075
 H        -2.2941815729        2.1023831660       -6.6282209424
 H        -4.1974596320        2.3298769270       -6.6415564293
 H       -10.7235458476       -2.4106667448       -3.8022294251
 H       -11.4752423534       -0.9045409533       -4.2491416555
 H       -10.2155134985       -0.8234769935       -3.0391824269
 H        -9.5028672132       -2.8801686665       -6.4865571924
 H        -9.1935941655       -1.3462208702       -7.2665270270
 H       -10.8430195974       -1.8270694616       -6.5611914686
 Na       -8.6064417711        1.3864997067       -2.1745111046
