117

 C       -10.6982559949        0.6188719075       -6.8061960619
 C        -9.9490037137        0.5605978249       -5.4751355713
 O        -9.8890898978        1.5316847751       -4.7124244498
 C        -9.3038449202       -0.9100209951       -5.0353447162
 C        -7.9337685454       -0.6659892633       -4.4970634439
 O        -7.6890120740       -0.1182547164       -3.4820606157
 C        -6.9491776557       -1.6458351175       -5.0347913812
 C        -5.4656400786       -1.2810496036       -4.8015307987
 C        -4.9004386335       -0.3057917292       -5.9059069172
 O        -5.6024668836        0.0929376629       -6.7878393127
 C        -3.4391765242        0.3861691723       -5.6512791245
 C        -3.5791846832        0.9349278278       -4.1771624744
 O        -3.5853256429        0.0925928305       -3.2334414744
 C        -3.4885232051        2.4088237880       -3.7485149985
 C        -4.5867391524        3.4522898781       -3.9072914896
 C        -5.9265576856        3.4244925928       -3.0779646911
 O        -6.8347631976        2.7203312094       -3.5874819963
 C        -6.0869141526        4.1833496161       -1.7407139951
 C        -7.2084153592        3.3748874498       -0.7289881840
 O        -7.0654911932        2.2237671102       -0.4805697044
 C        -8.3674830700        4.3256872911       -0.3426666835
 C        -9.4297634641        3.5722042039        0.5303803016
 C       -10.7298652490        3.1525084598       -0.2232395760
 O       -10.7548560897        2.3367307183       -1.1264128360
 C       -11.9954792871        3.9654652214        0.1967552044
 C       -11.7330615359        5.5838784558       -0.0763969607
 O       -10.8840728344        5.8572770522       -0.9561638532
 C       -12.4855077147        6.6833824858        0.6327101026
 C       -11.8352845620        7.6129584288        1.6344607220
 C       -10.9924058671        6.6755697228        2.5782217036
 O       -10.0517697415        6.0231388455        2.2730540358
 C       -11.3240551654        6.6552211366        4.1045945181
 C       -12.8530382418        6.4609852185        4.3664727379
 O       -13.2692239269        5.4649160245        3.8753010910
 C       -13.8100030981        7.2864524482        5.2703352614
 C       -14.7565119414        6.4373772332        6.0395329034
 C       -16.0021632958        7.4000039370        6.5959301614
 O       -16.1713839792        8.5225639852        6.0443835998
 C       -16.9145352742        6.9541732725        7.7871058156
 C       -16.9933384361        5.4085012430        7.8988832772
 O       -16.9246288229        4.6909416719        6.9299707886
 C       -17.3845777208        4.8365615591        9.4474592942
 C       -16.2711267780        7.5833697446        8.9979555007
 C       -18.3339452437        7.3533519384        7.3619344636
 C       -10.5741652198        5.5949602342        5.0901099595
 C       -10.9117693420        8.0888343307        4.6618559656
 C       -13.1227908808        3.6706919237       -0.7360708474
 C       -12.4779110254        3.5460376066        1.6577730269
 C        -4.7495300290        4.2029657182       -0.9744877831
 C        -6.4318213366        5.6396844486       -2.1584208470
 C        -2.2889930177       -0.6477778557       -5.6500262567
 C        -3.2420949767        1.4056525695       -6.8304658435
 C       -10.3565229212       -1.4074341766       -4.0359005148
 C        -9.3802175031       -1.9842420881       -6.2200132520
 H       -11.3932067477       -0.3217329852       -6.8381288313
 H        -9.9172485641        0.6281636301       -7.6409345735
 H       -11.3597949127        1.4968664419       -6.9337550145
 H        -7.1266108682       -1.6951237849       -6.1943017047
 H        -7.3402350002       -2.5370459015       -4.6519151630
 H        -4.8987092627       -2.1936931621       -4.6619364844
 H        -5.3372627535       -0.9127318398       -3.8224088675
 H        -2.6659180786        2.7215302815       -4.4033745457
 H        -3.2226560722        2.4104427420       -2.6915865610
 H        -4.9765164150        3.2613219091       -4.9180169880
 H        -4.1674420302        4.4699870084       -3.9681458559
 H        -8.8282728474        5.0650123571       -1.1342755356
 H        -8.0817403797        5.0487643994        0.3945919495
 H        -9.5734003235        4.3475220180        1.3001984530
 H        -8.9559286903        2.6729118905        1.0870394132
 H       -13.3405723173        6.2837928151        1.2136527994
 H       -13.0288737720        7.0822746844       -0.2499250207
 H       -12.5419938740        8.1099376100        2.1611560516
 H       -11.1452061975        8.2814747862        1.0902163205
 H       -14.4368804308        8.0888627013        4.8529573167
 H       -13.2127703052        7.9652568202        6.0736753217
 H       -14.3216532688        6.0051837470        6.9350556821
 H       -14.9381851188        5.4805765316        5.5038580946
 H       -17.8075432801        3.8497137006        9.2375976420
 H       -18.2142653589        5.5008477349        9.7124830923
 H       -16.6351924383        4.9969488143       10.1569452357
 H       -16.8034086114        7.4226683847        9.9044442448
 H       -16.0817499057        8.6451797092        8.6938195995
 H       -15.2910108313        7.0697195254        9.2368977537
 H       -18.9931444616        7.4489279373        8.1908132235
 H       -18.7435556761        6.5681353293        6.6057801061
 H       -18.3552178898        8.4000349741        6.8966282696
 H        -9.6763517575        5.0810465438        4.7836083874
 H       -11.3952040904        4.8842812041        5.2549539088
 H       -10.3606984238        5.9639227280        6.0744171308
 H       -10.7751428468        7.8726977013        5.7547182093
 H       -11.7267604620        8.8114623517        4.4537633947
 H       -10.0268781787        8.5452523797        4.1549105020
 H       -13.1182094051        4.0649589763       -1.8490166376
 H       -13.9754738461        3.8917526860       -0.1034373205
 H       -13.3411409589        2.6225815677       -1.0281538238
 H       -13.1457549280        2.6785531571        1.6298448655
 H       -12.9477775329        4.4799447361        2.0919662620
 H       -11.6090904274        3.3531260756        2.3413831852
 H        -4.9548521776        4.6841832283       -0.0292204164
 H        -3.9405542237        4.6333683704       -1.7171198054
 H        -4.5740880395        3.1262182301       -0.6643155916
 H        -7.3786460041        5.6007379978       -2.7241902394
 H        -5.5921130281        6.1592665369       -2.6724421243
 H        -6.6447561338        6.2304568945       -1.2648374636
 H        -1.3170900433       -0.2232306673       -5.7379171157
 H        -2.4169811497       -1.3793634375       -6.4454422415
 H        -2.2611507426       -1.2777141934       -4.7223546982
 H        -3.0611032074        0.8555435283       -7.7257515603
 H        -2.3909119308        1.9761421498       -6.5154202223
 H        -4.1941168806        1.9787333095       -6.9109455813
 H       -10.0779117620       -2.3699909505       -3.7887894509
 H       -11.3720261805       -1.3569671599       -4.4364679537
 H       -10.3932512634       -0.6841013708       -3.2011416186
 H        -8.9961687038       -2.9408890086       -5.9715622201
 H        -8.7904528971       -1.6439643189       -7.0404095461
 H       -10.4148593061       -2.1695724045       -6.5002557453
 Na       -8.8989302299        1.7096630897       -2.5432981412
