117

 C       -10.7218161103        0.6286340400       -6.8401896869
 C        -9.9919897171        0.4809594078       -5.5599198046
 O        -9.9688573197        1.4035423994       -4.7576967696
 C        -9.3561233772       -0.8627113740       -5.0546545249
 C        -7.8713448005       -0.8317405679       -4.3001458860
 O        -7.5868418697       -0.0527267420       -3.4289422241
 C        -6.7432087425       -1.7561207429       -5.0450908374
 C        -5.2889892608       -1.2885242127       -4.7731892756
 C        -4.8956261544       -0.3324530374       -5.7862082191
 O        -5.4780172573       -0.0151636959       -6.7877271899
 C        -3.4473343869        0.2800543948       -5.5524433999
 C        -3.5287858746        0.8916271780       -4.0991563077
 O        -3.6673981943        0.1365414700       -3.1814129882
 C        -3.4232920503        2.4352069558       -3.7028229462
 C        -4.6504910805        3.2917582653       -3.9988983673
 C        -5.9093253965        3.1051691430       -3.1483624692
 O        -6.9448301278        2.5856857763       -3.4761077796
 C        -6.0228151802        4.0745697050       -1.8164576479
 C        -7.1826677612        3.4959587171       -1.0498151396
 O        -7.0716142833        2.2635096578       -0.7432718310
 C        -8.3106211124        4.3149249059       -0.3986511784
 C        -9.3494169047        3.3773064419        0.5060363754
 C       -10.7180518796        3.2691187759       -0.2456518189
 O       -10.6954700983        2.4550716510       -1.2069910332
 C       -12.0738945649        3.9917046415        0.1920222718
 C       -11.7938483967        5.4612949814       -0.0479271860
 O       -10.9071711945        5.8376743479       -0.7220878402
 C       -12.7742490027        6.5152134265        0.6595649332
 C       -11.7851150659        7.4122807354        1.4280972163
 C       -10.9172409390        6.6782949473        2.6061155144
 O        -9.8823482536        6.1255250132        2.1169446718
 C       -11.4002890375        6.6259858857        4.2411694835
 C       -12.9577735415        6.3679077735        4.4059524565
 O       -13.4345440443        5.3653775797        3.8790494373
 C       -13.6350162379        7.3063119762        5.3738913300
 C       -14.8135685127        6.7487862503        6.1695248022
 C       -15.9680434331        7.5760077365        6.6220241368
 O       -16.1026695180        8.6608469611        6.1847122392
 C       -16.9474085081        7.0587435015        7.7613838704
 C       -17.1015917737        5.5609925713        7.9585631326
 O       -16.8504400168        4.7634852402        7.0422937978
 C       -17.3529323684        5.0038127932        9.3203315320
 C       -16.3816332390        7.6413668238        9.1681097533
 C       -18.4018342143        7.6500086809        7.4486122025
 C       -10.6367184439        5.5041192950        4.8507185554
 C       -10.8681272709        8.0853155696        4.7187985181
 C       -13.1704371725        3.6024314890       -0.9731970456
 C       -12.4153851394        3.6210386843        1.5706287990
 C        -4.7896207832        4.0895223173       -0.8330395499
 C        -6.3334530850        5.5784645266       -2.2791886127
 C        -2.3611162377       -0.7759489734       -5.6324310415
 C        -3.2326134876        1.3632243811       -6.6311450451
 C       -10.2510560215       -1.4362588758       -3.8574912134
 C        -9.4641688417       -1.9159113543       -6.1858251374
 H       -11.4530033303       -0.0469225352       -7.0099548051
 H        -9.9823208987        0.6773587077       -7.6286146218
 H       -11.1768678562        1.6380647104       -6.7972171906
 H        -6.9874576436       -1.6428302652       -6.1226378032
 H        -7.0577089621       -2.7840460557       -4.7781015243
 H        -4.5551413385       -2.0030224595       -4.5122247492
 H        -5.2822104216       -0.7712879764       -3.7527488732
 H        -2.4996033246        2.8705863968       -4.2262899808
 H        -3.3627945967        2.4681844189       -2.6414714495
 H        -4.9414804214        3.3254425910       -5.1221645236
 H        -4.3781272023        4.3247503314       -3.7420819953
 H        -8.9672594287        4.8618439804       -1.0396521345
 H        -7.9967386772        5.1910472880        0.2639396709
 H        -9.4974649527        4.0311635141        1.3709063938
 H        -9.0548050149        2.5170719074        0.8178601359
 H       -13.6809118651        6.2889099280        1.3023925098
 H       -13.2766349071        7.0183802408       -0.2357492204
 H       -12.3431464582        8.2379591786        1.9748615077
 H       -11.1048911140        7.8289492834        0.6289824486
 H       -14.2002937359        8.0489075919        4.6385784083
 H       -13.0984755000        8.0033312019        5.9601165675
 H       -14.5458229597        6.1277727059        7.0306809431
 H       -15.2327767298        5.8964681025        5.5668222574
 H       -17.6560967498        3.9734520694        9.1362416559
 H       -18.0668461956        5.6219787162        9.8658132499
 H       -16.3408703298        5.1030944673        9.7814111183
 H       -17.3051280053        7.6183788588        9.8904116320
 H       -16.0776411784        8.6598173146        8.9581009284
 H       -15.6253016000        7.1240122012        9.6909123647
 H       -19.0402997550        7.6827682622        8.3472513381
 H       -18.8576849105        7.0316119712        6.6715874492
 H       -18.3916695096        8.7322484840        7.1306463447
 H        -9.8127238088        5.2274108071        4.3321043318
 H       -11.2791186617        4.7273082611        4.9407682610
 H       -10.2477442586        5.6996115230        5.8639443967
 H       -10.6527236897        8.1274095218        5.7624602859
 H       -11.6920089071        8.7112755078        4.3768030443
 H       -10.0798166013        8.5159797518        4.0134736693
 H       -12.7019725794        3.5583937946       -1.9045896413
 H       -14.0855696020        4.1457160000       -0.8971735835
 H       -13.5861771612        2.5574303586       -0.9316431440
 H       -12.5896909765        2.4744589348        1.6239330261
 H       -13.3261238322        4.2030491800        1.8448595984
 H       -11.6256478488        3.9451258934        2.2717028962
 H        -5.1209556042        4.5070735338        0.1249050173
 H        -4.0844132136        4.6883815141       -1.4959292997
 H        -4.4552975792        3.0446746579       -0.6481983736
 H        -7.2780290176        5.6502874338       -2.8285945728
 H        -5.5020917256        5.9029551115       -2.7689369827
 H        -6.4092183329        6.2570168759       -1.4870251127
 H        -1.3634555627       -0.3542214868       -5.8342510705
 H        -2.5829265980       -1.4705415714       -6.4767516052
 H        -2.1799665704       -1.3700969776       -4.7444830173
 H        -3.1243404272        0.9256149245       -7.5699074612
 H        -2.3606792697        1.9709079498       -6.2493953711
 H        -4.0998684501        1.9005803698       -6.6269119743
 H        -9.5763578516       -2.2923321466       -3.6627621634
 H       -11.2356180238       -1.8286160200       -4.2399790264
 H       -10.5818170158       -0.7289925669       -3.0112817218
 H        -8.9622032247       -2.7991976976       -5.8332070843
 H        -8.8020666265       -1.5683744196       -6.9450097591
 H       -10.4691606091       -2.2101027473       -6.5381674519
 Na       -9.0343158028        1.9853084855       -2.7137774431
