117

 C       -10.6132965345        0.5712126766       -6.8490605703
 C       -10.0134269604        0.4542609891       -5.4093464148
 O       -10.0371061848        1.4268639812       -4.7254992512
 C        -9.2858918208       -1.0640701860       -4.9858232100
 C        -7.8671834964       -0.8568774737       -4.5123758947
 O        -7.6471592018       -0.1108616615       -3.5127438928
 C        -6.7915817931       -1.7809038341       -5.0336072302
 C        -5.3896757702       -1.3652512376       -4.6514954170
 C        -4.8244559470       -0.3574301956       -5.6714906523
 O        -5.4197168899       -0.1729792562       -6.7438491306
 C        -3.4103014536        0.3941983777       -5.4204355118
 C        -3.4572195261        0.8935097376       -3.9104828447
 O        -3.6320084475        0.1371524739       -3.0189207895
 C        -3.3348889721        2.4261502278       -3.7114195660
 C        -4.7322862055        3.1918313296       -4.0967430450
 C        -5.9575192122        3.1543157337       -3.1615584684
 O        -6.8177021062        2.4486484241       -3.5303971751
 C        -6.0154024962        4.0191802073       -1.8613119550
 C        -7.2241029375        3.4428444894       -1.0174703198
 O        -7.2559451067        2.2026497367       -0.9911578240
 C        -8.3208675275        4.3063298542       -0.3919723096
 C        -9.3330107225        3.4344330081        0.3631890474
 C       -10.6774909311        3.2585400690       -0.3646570900
 O       -10.6636697836        2.5845159312       -1.4001991492
 C       -12.0245009767        3.8740314666        0.1049780692
 C       -11.8676851971        5.4085379005       -0.0738862628
 O       -10.8869477601        5.9266605907       -0.5809997139
 C       -12.8271813507        6.3739117854        0.7428301027
 C       -11.8138804120        7.3186868246        1.4524242591
 C       -11.0027775716        6.6296385376        2.5456687766
 O        -9.8611962449        6.2522770863        2.2739788210
 C       -11.4091487244        6.6489565615        3.9752224788
 C       -12.9199944188        6.4056432532        4.4112455189
 O       -13.5837627383        5.4520809215        3.9788280337
 C       -13.6414905500        7.3393769191        5.3921747570
 C       -14.8484050234        6.6681675448        6.2474857809
 C       -15.9080239876        7.8144702440        6.7273249595
 O       -16.0625281086        8.8920436114        6.2707150500
 C       -17.0180741887        7.2872946040        7.7932564844
 C       -16.9976659525        5.5682026155        7.9783588532
 O       -16.8138021716        4.8861090326        7.0008953636
 C       -17.3971652854        5.0442442399        9.3479265009
 C       -16.5739450040        7.8760267416        9.1954036576
 C       -18.3641344097        7.9347954520        7.5939132731
 C       -10.5468835708        5.4136084411        4.5855363796
 C       -10.8549078368        7.9760310033        4.6431403438
 C       -13.1257465968        3.4654610214       -1.0230613424
 C       -12.4390064533        3.5378107077        1.4795758678
 C        -4.8064396318        3.9610725998       -0.8612938960
 C        -6.2338114071        5.4332181453       -2.4272618439
 C        -2.4528916256       -0.8560211063       -5.5607486237
 C        -3.1017113884        1.5073653388       -6.5041166103
 C       -10.1788592167       -1.4427567281       -3.6297463160
 C        -9.4725347672       -1.9303067681       -6.2141605017
 H       -11.4737011202       -0.0357451381       -6.9715814252
 H        -9.9546707106        0.4685246565       -7.6291999089
 H       -10.9456891513        1.5509076587       -6.8241169915
 H        -6.9076111208       -2.0508144765       -6.0148929189
 H        -7.1359701950       -2.6809008586       -4.3526920574
 H        -4.7918664383       -2.3072804908       -4.7307523331
 H        -5.2044232902       -1.2552806818       -3.5450165780
 H        -2.5731566600        2.7861091603       -4.4251429108
 H        -3.1052266736        2.7520968322       -2.6437522583
 H        -5.1182985905        2.8094135611       -5.0629504515
 H        -4.4300258138        4.2415980894       -4.3037354045
 H        -8.9254715754        4.6244006730       -1.1735662682
 H        -7.9950456708        5.2640057602        0.0368199257
 H        -9.3839692730        3.5993990733        1.3729875956
 H        -8.9599379565        2.4058860219        0.3201911618
 H       -13.5021838914        5.8340226517        1.4309819142
 H       -13.6024489842        6.9727854927        0.1743872977
 H       -12.3837888059        8.1392827725        2.1150773304
 H       -11.1895367949        7.7549247768        0.6442767880
 H       -13.9094446388        8.2759571589        4.8462920582
 H       -13.0793998692        7.8012143797        6.1633797882
 H       -14.3522023677        6.0976005787        7.0974309865
 H       -15.4389991125        5.8485412824        5.8724284524
 H       -17.7647487307        4.0312798692        9.2185463416
 H       -18.0841308135        5.7781938803        9.8329571157
 H       -16.3678573223        5.0488402995        9.8897424758
 H       -17.4072253045        7.7321912129        9.8903989488
 H       -16.2228611094        8.9181892439        9.1775906059
 H       -15.7460083327        7.3029362069        9.6254081566
 H       -19.0741233527        7.7884967791        8.4660686275
 H       -18.7677127327        7.5701125298        6.7179390503
 H       -18.2792682308        8.9823420193        7.5925269859
 H        -9.5109063619        5.3970405174        4.2876885257
 H       -11.0540096948        4.4774408390        4.4123839128
 H       -10.4560601266        5.5414683543        5.6127975870
 H       -11.0832900811        7.8070182426        5.6741757481
 H       -11.4007439290        8.8168762532        4.2232364625
 H        -9.8551305587        8.1790668780        4.4045791227
 H       -12.6538617698        3.0964161347       -1.8544089059
 H       -13.8483651715        4.2230464836       -1.2043109537
 H       -13.7534549526        2.6767657284       -0.7134495966
 H       -12.0132134964        2.5641569789        1.7538774159
 H       -13.5341084966        3.5261369680        1.6134402219
 H       -12.0063240841        4.3068961577        2.1310841103
 H        -5.2452175899        4.4374560335        0.0632797666
 H        -4.0064853720        4.4499077413       -1.2557039214
 H        -4.6065875633        2.9143065188       -0.6791049294
 H        -7.1178251718        5.5326350860       -2.9413002172
 H        -5.3015423711        5.6044885819       -2.9086331340
 H        -6.2238311360        6.2141093449       -1.7112093986
 H        -1.3203490712       -0.5922497477       -5.6378743855
 H        -2.7029037801       -1.4348362672       -6.4730855029
 H        -2.4266308713       -1.4768378626       -4.6612586983
 H        -3.1728793081        0.8926984358       -7.4049176302
 H        -2.1580914250        1.9647036110       -6.3265711166
 H        -3.9038254306        2.2240849143       -6.5901124704
 H        -9.5966331708       -2.3141124359       -3.1187922724
 H       -11.2257629706       -1.7365164307       -3.9337266823
 H       -10.3924646036       -0.5091706592       -3.0621900098
 H        -9.0482951271       -2.9261835673       -5.9327924246
 H        -8.7931174504       -1.5271607166       -6.9966237813
 H       -10.5206414831       -2.0417240446       -6.5034108485
 Na       -9.0954256683        2.1261050849       -2.8614429167
