117

 C       -10.4552256170        0.4595085234       -6.8323356490
 C       -10.0184853924        0.3992829724       -5.3949733888
 O       -10.0595065086        1.3477779896       -4.6049020128
 C        -9.5227419378       -1.0034738076       -5.0401772681
 C        -7.9529885668       -0.8118060815       -4.4912701092
 O        -7.7078182481       -0.0198035338       -3.6262208304
 C        -6.8608460284       -1.9192879145       -4.9671912866
 C        -5.4371414370       -1.4434345638       -4.6128744753
 C        -4.8224666133       -0.3591867515       -5.6025125656
 O        -5.3358693846       -0.2348620314       -6.7046735126
 C        -3.5006852540        0.3584812740       -5.2846002434
 C        -3.4346175468        0.9625851995       -3.8605798117
 O        -3.4730308038        0.2480017725       -2.8409994655
 C        -3.3339127725        2.4437854190       -3.6765331550
 C        -4.6243438211        3.1244320725       -4.2152292312
 C        -5.7896760812        2.9854985504       -3.1663621450
 O        -6.7932154679        2.4018533474       -3.6354836424
 C        -5.9660717398        3.9700077787       -1.9500892316
 C        -7.3748887803        3.3307315785       -1.1121218520
 O        -7.5600421635        2.1610343316       -1.0760847974
 C        -8.3418721596        4.2110862017       -0.4966973993
 C        -9.4244805026        3.5178231294        0.2772430477
 C       -10.6303944189        3.1507293359       -0.5674570431
 O       -10.6406053100        2.6896102336       -1.6583601672
 C       -12.0022967399        3.8250180963       -0.0665386670
 C       -11.8068982221        5.4193245748        0.0407737642
 O       -10.8815134538        5.9667233908       -0.6319677659
 C       -12.7351269967        6.2618643473        0.8133710742
 C       -12.1094247040        7.4713193102        1.5284822271
 C       -10.9484956475        6.7039753503        2.4991794520
 O        -9.8908468356        6.3480899267        2.1913567172
 C       -11.4960879971        6.5929237120        4.0692789069
 C       -13.0219641013        6.3834734164        4.5146877580
 O       -13.6173853664        5.5070426650        3.9323715016
 C       -13.6711594895        7.5386185069        5.5023110779
 C       -14.8487656218        6.8064959933        6.2796396055
 C       -15.9388587980        7.7879281580        6.7474879566
 O       -15.8770236450        9.0154283824        6.3823164919
 C       -16.9753545123        7.3753823935        7.9204963972
 C       -17.0572904336        5.8532459065        7.9641013034
 O       -16.8302240588        5.1566288557        7.0268393785
 C       -17.4422235593        5.1506599885        9.3245029935
 C       -16.5244332322        8.0577900995        9.2896165617
 C       -18.3132991355        8.0240210960        7.5819448967
 C       -10.6194850832        5.3041464925        4.6284735571
 C       -10.8088776494        7.8509847521        4.5690482965
 C       -13.1584145580        3.3537598441       -0.9726217917
 C       -12.4281180812        3.2973138237        1.4611823939
 C        -4.7708719707        3.8243673345       -1.0001045092
 C        -6.1885738747        5.4098769784       -2.4852709325
 C        -2.4819654366       -0.7995134251       -5.4046148391
 C        -3.0198512859        1.3852221843       -6.3110573381
 C       -10.0706018729       -1.4355563152       -3.6793205857
 C        -9.5626592889       -2.0495083361       -6.0847358859
 H       -11.3804324698       -0.2108040733       -6.7656523077
 H        -9.7479900577        0.0372599420       -7.5411148681
 H       -10.7710529930        1.4405691246       -7.0773399187
 H        -6.9352511968       -1.8545116064       -6.0602754216
 H        -7.1321573360       -2.8925046011       -4.6039967577
 H        -4.8389134711       -2.4304022865       -4.5843555346
 H        -5.3085907010       -1.2574264712       -3.5886683045
 H        -2.4529797093        2.7875928651       -4.1949422441
 H        -3.2691526341        2.7569321163       -2.5876656220
 H        -4.9948984941        2.6275805827       -5.0626468797
 H        -4.4123701333        4.1587355427       -4.5549781069
 H        -8.8593921542        5.0639857880       -1.0411309915
 H        -7.6083679567        4.6522587602        0.1247570980
 H        -9.7019053581        4.0432904997        1.2114936458
 H        -8.8553853172        2.5407959890        0.7518366280
 H       -13.3136103715        5.5692509025        1.3504763473
 H       -13.4860239677        6.7090995126        0.2157191539
 H       -12.7625390679        8.0542242634        2.1340533613
 H       -11.6748606587        8.0076536290        0.6712401235
 H       -13.8176882413        8.4347193906        5.0655591594
 H       -12.9756892317        7.8967775112        6.3877199094
 H       -14.4696669788        6.0566747131        6.9935235894
 H       -15.4043901329        6.1347964953        5.6237517403
 H       -17.6892305084        4.1137286452        8.9764134588
 H       -18.2845952766        5.6655709308        9.8694399147
 H       -16.5186581129        5.0503127955        9.9354108860
 H       -17.1827062814        7.8654684701       10.0502493355
 H       -16.4304996958        9.1618276336        9.1395739077
 H       -15.4484097734        7.7513702717        9.5796935768
 H       -19.1461612713        7.7665359891        8.1457149412
 H       -18.4500126511        7.8091894377        6.5189856900
 H       -18.2473014780        9.0445466051        7.8131113682
 H        -9.5340423230        5.6374467104        4.7425104574
 H       -10.6942017679        4.4067646293        3.9032169623
 H       -10.8116449020        4.9643948753        5.6390439307
 H       -11.0935078980        7.9826252371        5.6142607903
 H       -11.0391157909        8.6873797965        3.9475692031
 H        -9.7910719563        7.7262545377        4.4567801968
 H       -12.8289748884        2.7545591607       -1.8995385363
 H       -13.8861121417        4.0880684086       -1.2166510652
 H       -13.7218709410        2.6950911617       -0.3938853373
 H       -11.7397536457        2.5912613363        1.7283806015
 H       -13.4074239589        2.8322978973        1.5318340877
 H       -12.2686577749        4.1107947934        2.1673503055
 H        -5.0032945491        4.4746691222       -0.1834283811
 H        -3.8013540438        4.0873578410       -1.4381574947
 H        -4.7415495317        2.7829052790       -0.7730490689
 H        -7.1128790156        5.5058151231       -3.0003532841
 H        -5.2294991590        5.7915875740       -2.8974502180
 H        -6.3180786216        6.0956911789       -1.6365485345
 H        -1.4289879846       -0.4343895534       -5.2480581463
 H        -2.5056216800       -1.2362543942       -6.4206469953
 H        -2.4874221848       -1.5617547190       -4.5498136048
 H        -3.2337259516        0.8162923312       -7.2506006673
 H        -2.0191059396        1.6006862621       -6.1096235734
 H        -3.6169281550        2.3745929443       -6.3698959937
 H        -9.4673628270       -2.2872932394       -3.4260042702
 H       -11.1420045792       -1.6625346623       -3.7421318700
 H       -10.0583606187       -0.5782680361       -3.0327675073
 H        -9.1663805154       -2.9548230090       -5.5369477619
 H        -8.8694345723       -1.8332383815       -6.9519208694
 H       -10.5967475349       -2.2335239695       -6.4120458197
 Na       -8.9678881823        2.0955628823       -2.9838814086
