117

 C       -10.3367597835        0.3967297249       -7.0121606470
 C       -10.0602020195        0.1484401036       -5.4984399983
 O       -10.3188025703        1.0961260493       -4.7882879672
 C        -9.6551406280       -1.1466457352       -4.8710628321
 C        -7.9997279092       -0.9507246173       -4.5336691632
 O        -7.6257259245       -0.0166757177       -3.8264526928
 C        -6.8452174639       -1.8233836027       -5.0222204453
 C        -5.4658094863       -1.3631517865       -4.4557025902
 C        -4.7594485751       -0.4584660967       -5.4853346306
 O        -5.2913550591       -0.1613885264       -6.5542162113
 C        -3.2948695428        0.1304322830       -5.0889252179
 C        -3.4384170476        0.8943610976       -3.6621655152
 O        -3.2638023692        0.2946612127       -2.6510898702
 C        -3.2651141051        2.4319733554       -3.7281763957
 C        -4.4942275770        3.3589961354       -4.0141329748
 C        -5.8187750282        2.9950467924       -3.4575528003
 O        -6.5742545844        2.4997275495       -4.2137213742
 C        -6.1473258491        3.8071630808       -2.0209623211
 C        -7.3373146020        3.2512854045       -1.2490326791
 O        -7.6504738447        2.0323812306       -1.2242344242
 C        -8.1409504633        4.2996929048       -0.5063128016
 C        -9.3831065035        3.6384758370        0.1291643572
 C       -10.6380817199        3.4438154997       -0.7574045923
 O       -10.5537101015        2.9140464297       -1.8795904518
 C       -12.0710299171        3.7586279164       -0.0817335715
 C       -11.9271780561        5.2462374588        0.0063133680
 O       -11.1359945863        5.7576660361       -0.7064617717
 C       -13.0655385574        6.0869738251        0.7897673426
 C       -12.4984243513        7.2179493928        1.6919186376
 C       -11.2925165020        6.8100434824        2.5238676206
 O       -10.1562744740        6.4599185754        2.0938266729
 C       -11.4576519628        6.6338638278        4.1935743630
 C       -12.9936486524        6.6101703456        4.5399795395
 O       -13.5358142751        5.7532625313        3.8298810534
 C       -13.6006210999        7.6062000086        5.6295691546
 C       -14.8346030828        7.0053507050        6.1528723975
 C       -15.7365562582        8.1293336460        6.8997398012
 O       -15.4989038053        9.2147156177        6.5689279929
 C       -16.7359280537        7.6656866172        8.0401058599
 C       -17.0575974593        6.1314144511        8.0393085445
 O       -17.1015116996        5.5106867640        6.9804114383
 C       -17.5657290314        5.5146038878        9.2949714778
 C       -16.3460139015        8.3014478912        9.3127689926
 C       -18.0656220976        8.1876328612        7.4382053606
 C       -10.9378966795        5.2665437820        4.7488680304
 C       -10.6856679804        7.7772746853        4.8809588907
 C       -13.3068786797        3.4709097659       -0.9695820852
 C       -11.9828759783        2.9748156318        1.2156632723
 C        -4.9047335183        3.5252338291       -1.0193419306
 C        -6.2757669822        5.3042125975       -2.3789855821
 C        -2.3038251547       -1.0185187253       -4.8023910651
 C        -2.9664733606        1.0069557106       -6.3510107869
 C       -10.3491329962       -1.4551899094       -3.5275903372
 C        -9.7167576669       -2.4091628148       -5.8218586680
 H       -11.2449304959       -0.0946980618       -7.4146258567
 H        -9.4530018366       -0.0531971291       -7.5707745075
 H       -10.3744222837        1.5015182629       -7.2068140079
 H        -6.8606889296       -1.8736163354       -6.1060887079
 H        -7.1301205146       -2.8214186249       -4.5594651961
 H        -5.0434274293       -2.2536914770       -4.1662688920
 H        -5.5344376985       -0.9086788106       -3.4280895751
 H        -2.4441221119        2.8667964368       -4.3344420418
 H        -2.9518845882        2.6724110704       -2.7263924755
 H        -4.6177773443        3.4985445519       -5.1335247267
 H        -4.1921339308        4.3249400827       -3.6540310954
 H        -8.4227703625        4.9605887425       -1.3013212047
 H        -7.4613094333        4.8834111218        0.2510849420
 H        -9.7379482198        4.3138344373        0.8839187542
 H        -8.9910820439        2.8918433081        0.7054842704
 H       -13.7365547841        5.4575822445        1.4251240680
 H       -13.8008237506        6.6165652606        0.1348035578
 H       -13.2421307076        7.3346754350        2.5423381885
 H       -12.4025493571        8.2176883380        1.2911818788
 H       -13.8162478198        8.7230709149        5.2925612250
 H       -12.9560605556        7.8563426257        6.3684142445
 H       -14.4775676257        6.3547288206        6.9717756307
 H       -15.0768716751        6.2636146389        5.3630238560
 H       -17.8248989035        4.4956503175        9.2874415276
 H       -18.4299960062        6.1518928362        9.4014944379
 H       -16.8035482689        5.5792987654       10.1102812140
 H       -16.9727180482        7.9777322265       10.2446660366
 H       -16.3508977132        9.4074965833        9.3033322985
 H       -15.3241910261        8.0563667610        9.3988314619
 H       -18.9438093273        7.9365008271        8.1602341944
 H       -18.2165067202        7.7639635804        6.4668489198
 H       -18.1336615348        9.2803301687        7.5504147390
 H       -10.2714765398        5.5469261428        5.5796630827
 H       -10.3523493322        4.6727241784        4.0526956115
 H       -11.6610815038        4.6212654252        5.2662661385
 H       -10.5701422668        7.5852775132        5.9568102114
 H       -11.0376261659        8.8396509157        4.6790249884
 H        -9.6894536849        7.6318425618        4.3744264726
 H       -12.8184537210        3.5941916973       -1.9463916347
 H       -14.1234455054        4.3114355315       -0.9663028657
 H       -13.8701697596        2.4850168340       -0.9314060727
 H       -11.2530914202        2.0996116232        1.1840481342
 H       -12.9042300299        2.4130056306        1.1629893579
 H       -11.6921433688        3.5134863563        2.1089069027
 H        -5.1395129719        4.0882030352       -0.0493993002
 H        -4.0361492011        4.0704312335       -1.4090592351
 H        -4.6295297745        2.4249602214       -1.1321901784
 H        -7.1595739925        5.3882703207       -3.0561565943
 H        -5.3288560907        5.7252391071       -2.7487368922
 H        -6.5554657325        5.9784437650       -1.5329828067
 H        -1.3268885445       -0.8329136574       -4.3465668084
 H        -2.0956511347       -1.5076786162       -5.7485463380
 H        -2.7186583274       -1.7014783491       -4.1141280684
 H        -3.0091887039        0.3781414721       -7.2264532282
 H        -2.0171313902        1.5598975917       -6.1471727235
 H        -3.6865404921        1.7663317812       -6.4413304516
 H       -10.0365348812       -2.4758045813       -3.2897082697
 H       -11.3871151990       -1.3970528612       -3.7052758123
 H       -10.1025102742       -0.7714973607       -2.7544724021
 H        -9.3588474926       -3.2809502175       -5.3063490762
 H        -9.2648591525       -2.2003088080       -6.7651636673
 H       -10.7665917094       -2.5035832366       -6.0543844265
 Na       -8.7724160896        1.7692769564       -3.1510686896
