117

 C        -7.0187579092       -2.6786933291        9.3115613976
 C        -7.8016700135       -2.6006724216        8.0380350635
 O        -8.9684225508       -2.3265174493        7.9714453854
 C        -6.8899800691       -3.0094445895        6.6624690486
 C        -6.3238630038       -1.5636143753        6.2131859313
 O        -5.1184037993       -1.3731383045        6.1388858021
 C        -7.1864510939       -0.3313737673        5.8335463672
 C        -6.2858227625        0.9550369502        5.6108588574
 C        -7.1662389447        2.1430429594        5.2284404046
 O        -8.3724441186        1.9382859925        5.0613961286
 C        -6.5551830304        3.5478753372        4.7998369045
 C        -6.2364231855        3.3181743038        3.1982436829
 O        -5.3586491887        2.5783199815        2.8680437732
 C        -7.3150610298        3.9885181311        2.2470760695
 C        -7.0185519088        3.5853560287        0.8017065942
 C        -8.1823556973        3.3099975975       -0.0970213531
 O        -8.2818755627        4.1090196997       -1.0385901676
 C        -9.2257519544        2.1145229536       -0.0069225628
 C       -10.4067125563        2.5428945616        1.0124611760
 O       -10.1425021848        3.1329998712        2.0144061608
 C       -11.9499986604        2.0320005145        1.0109799157
 C       -12.8314720815        3.2736969477        1.1195094657
 C       -12.4207780002        4.2853613149        0.0337740535
 O       -11.2919460279        4.1872151551       -0.3566621866
 C       -13.3008439659        5.2660016067       -0.7196511155
 C       -13.3608881101        4.6587090229       -2.1789532290
 O       -12.3148830139        4.5201332365       -2.7843031117
 C       -14.7367951571        4.4192737919       -2.9645162586
 C       -14.4667501018        4.7996301542       -4.4221302688
 C       -14.3342858020        6.4055085728       -4.5573133880
 O       -14.6687764612        7.1702205469       -3.7091804334
 C       -13.9065348415        7.0375547848       -6.0721726898
 C       -12.3716306602        7.2474604799       -5.8510660224
 O       -11.6818540788        6.2530795303       -6.0095663928
 C       -11.7783544908        8.6759868190       -5.5334856159
 C       -10.1880577591        8.7247921638       -5.5498754040
 C        -9.5854165350        7.6718707185       -4.5529329083
 O       -10.1173242182        7.4880085325       -3.4659022257
 C        -8.3409185214        6.6838605889       -4.9903442915
 C        -9.1129447209        5.3786047542       -5.3892702758
 O        -9.6147344369        4.6924552127       -4.4903665621
 C        -9.0256007646        4.7549068246       -6.8017014403
 C        -7.5251356064        7.3365856957       -6.1235511070
 C        -7.4064033648        6.5978760970       -3.6401886240
 C       -14.1276250196        5.9716853369       -7.1283103799
 C       -14.7319520088        8.3314278631       -6.2500334736
 C       -14.6532993373        5.4195607966       -0.0863085160
 C       -12.6816951851        6.6458537528       -0.7907156252
 C        -9.5949306488        1.7443046475       -1.4269138671
 C        -8.6154532302        0.9434830088        0.7371120923
 C        -7.5212015783        4.7231030515        5.1143609204
 C        -5.1469107440        3.9872644453        5.3988004770
 C        -5.8984410322       -4.1144328582        7.0434028329
 C        -7.9073756176       -3.3566407504        5.5559068931
 H        -7.6108199335       -2.2413519506       10.1342139196
 H        -6.2060755075       -1.9384716146        9.3552041673
 H        -6.5792739668       -3.6271336990        9.5365555965
 H        -8.0501284128       -0.1454814370        6.4826281463
 H        -7.7438495409       -0.6448697593        4.8475075780
 H        -5.4006931305        0.9033983949        4.9722411752
 H        -5.6751860093        1.2237920726        6.5446883492
 H        -7.3056432619        5.0821212574        2.2697716972
 H        -8.3004257352        3.5836466023        2.6383555188
 H        -6.3608661379        2.7315645285        0.8072681367
 H        -6.4570085523        4.3635297366        0.2282166610
 H       -12.0646664723        1.4356552349        1.9778990271
 H       -12.4446843002        1.4815232922        0.2556961650
 H       -12.6172380915        3.8243870949        2.0962537752
 H       -13.8600173581        2.9545786085        1.1115348833
 H       -15.5771375767        4.9334695995       -2.4432856375
 H       -14.9582579380        3.3112437341       -2.8363070643
 H       -15.2871273228        4.6024619622       -5.0051708612
 H       -13.5998115301        4.3083568463       -4.8106351665
 H       -12.4054423577        9.0228293269       -4.6714332608
 H       -12.0131966597        9.2487049384       -6.4821325872
 H        -9.6783812038        9.7475467285       -5.5399124872
 H        -9.9913093087        8.2518245452       -6.4837554766
 H        -9.4991103098        5.3559331247       -7.5412958011
 H        -9.5278232632        3.7709476717       -6.7735059081
 H        -7.9527645623        4.6249524296       -7.0064704967
 H        -7.4214886947        8.4139764612       -5.9231892769
 H        -8.1284930492        7.2215773302       -7.0423532758
 H        -6.4586791517        7.0104194737       -6.3573991844
 H        -7.8937241217        5.8404473031       -2.8964366544
 H        -7.2914680533        7.5054733556       -3.1726623181
 H        -6.4730447156        6.0635552500       -3.8932332375
 H       -13.2881217302        5.2861505718       -7.2146033927
 H       -14.2756118062        6.4317903875       -8.1294756204
 H       -15.0747122008        5.3820282754       -6.8879339359
 H       -14.5307963827        8.8665133835       -7.1199131971
 H       -14.6085113901        8.9571938557       -5.3521902815
 H       -15.7777278094        8.1334955199       -6.1704203915
 H       -14.5286492191        5.7592561889        0.9535912656
 H       -15.2255263243        4.4896257647        0.0040701386
 H       -15.3638234252        6.0735107923       -0.6465303672
 H       -12.6549909865        7.2127583632        0.1569200112
 H       -13.2196120709        7.1855239121       -1.6123849951
 H       -11.5871973981        6.5051125827       -1.0951105244
 H       -10.1393716582        0.7350195381       -1.3958261076
 H        -8.6795118256        1.5915983672       -1.9938820194
 H       -10.1679304669        2.5152337095       -1.8999498739
 H        -8.1949009457        1.2931671655        1.6502505370
 H        -7.8060764842        0.3758853293        0.2750687074
 H        -9.3016911804        0.1991297180        1.0382990681
 H        -7.6551082172        4.6337329780        6.1982643504
 H        -8.5147777327        4.7392018466        4.5623531853
 H        -7.1237331145        5.6904015107        5.0353153832
 H        -5.1936239243        4.3373747462        6.4384185893
 H        -4.6808600530        4.8751862754        4.8625804986
 H        -4.4573446769        3.1537038946        5.4688143211
 H        -5.0093410768       -3.7810544879        7.5982285569
 H        -5.4876313749       -4.5293859257        6.1578309740
 H        -6.3525841040       -4.9748774836        7.5748205228
 H        -7.6613678632       -4.3122189079        5.1278916135
 H        -7.8078083495       -2.6035236073        4.7181389098
 H        -8.8780990178       -3.4014868666        6.0464623264
 Na      -10.0692219018        5.3285624093       -2.1951624388
