117

 C        -9.9838152895       -0.4291961871       -7.1484269337
 C        -9.8815575845       -0.1801595169       -5.6764498653
 O       -10.2121027311        0.9150114929       -5.3127829403
 C        -9.4457307504       -1.4886644826       -4.8285922425
 C        -8.0134996105       -1.1652922954       -4.4188530528
 O        -7.8268232138       -0.2812579400       -3.5778824948
 C        -6.8568661482       -1.9940665395       -4.9428570782
 C        -5.4250249353       -1.6964825590       -4.5336682842
 C        -4.7181640644       -0.5638936022       -5.2927725986
 O        -5.1795346703        0.1879107899       -6.2231944001
 C        -3.3031644785       -0.2211184909       -4.7427917877
 C        -3.5787525734        0.8099841752       -3.5755822948
 O        -4.0957751722        0.3806746671       -2.5889550700
 C        -3.1875971375        2.2684743621       -3.8842493985
 C        -4.3858330951        3.1030188505       -4.4935701617
 C        -5.7112576148        3.1045826058       -3.5602973514
 O        -6.7709237688        2.8786932061       -4.0152832569
 C        -5.7221804625        3.7784884487       -2.1305387613
 C        -7.2080066814        3.2798937700       -1.4826208215
 O        -7.4622911233        2.0740023511       -1.7847792705
 C        -8.1388695135        4.3202717946       -0.8029062277
 C        -9.3221638469        3.5666416354       -0.1126244966
 C       -10.6578295901        3.4610855674       -0.8760085141
 O       -10.4744165872        3.1602326628       -2.0829781226
 C       -12.1473340313        3.6209123095       -0.2678669085
 C       -12.3060633943        5.1601726727       -0.1004192566
 O       -11.8302194460        6.0361728015       -0.7681552431
 C       -13.0655316292        5.7700106752        1.1329711499
 C       -12.4370565195        7.1177340176        1.5560834809
 C       -11.2978484393        6.6449754993        2.5223699192
 O       -10.3164225210        6.2076438317        1.9301852074
 C       -11.5455416108        6.6192388369        4.1999780969
 C       -13.1340855128        6.5802455370        4.5778890580
 O       -13.9444692393        5.8381530291        4.0289973512
 C       -13.4316020351        7.5010623558        5.7783963654
 C       -14.8486648763        7.3950595701        6.4234518588
 C       -15.4942013483        8.5240104354        7.2477727700
 O       -15.0255781226        9.5685984641        7.0281964671
 C       -16.7707938109        8.2786390984        8.0884252745
 C       -17.2274288127        6.7473365131        8.0710416986
 O       -17.2327547443        6.1575676033        7.0509809362
 C       -17.6993778114        6.1315448689        9.3471781103
 C       -16.4365294532        8.8023441809        9.5324037641
 C       -17.9022082223        9.1641775558        7.5283899563
 C       -10.9904965850        5.2278209741        4.6847859112
 C       -10.6048828932        7.8199289887        4.6829831774
 C       -13.1061830996        3.1808265541       -1.4032323408
 C       -12.2705890151        2.7769716506        1.0195000868
 C        -4.5910315933        3.5207304176       -1.1510451533
 C        -5.7172270311        5.3206658167       -2.1812583826
 C        -2.5968929824       -1.4691236808       -4.1332589177
 C        -2.5701974266        0.3641001770       -5.8855392729
 C       -10.3314817398       -1.5434007267       -3.5175628590
 C        -9.5896911328       -2.8750368129       -5.5494712049
 H       -10.5833221458       -1.4341775378       -7.4184425627
 H        -8.9427029787       -0.6349092682       -7.5535310444
 H       -10.5395432475        0.4774790336       -7.4568948694
 H        -6.8169280530       -1.9180394996       -6.0126659748
 H        -7.2396171780       -3.0523440856       -4.5715402915
 H        -4.9365636992       -2.6034971050       -4.7263872309
 H        -5.3255443723       -1.5434576284       -3.4288894146
 H        -2.2449583291        2.2589833560       -4.3608589830
 H        -2.8667209394        2.7960931166       -2.9942429116
 H        -4.5974180739        2.6723432758       -5.4672128587
 H        -4.1505890488        4.1283517024       -4.5600229193
 H        -8.4144682969        5.1686902867       -1.4126147992
 H        -7.4510467672        4.6302067814        0.1339171119
 H        -9.3548761202        4.0470116974        0.7991989581
 H        -9.1411682138        2.4909984648        0.2553277466
 H       -13.1181167522        5.1094310832        1.9503490405
 H       -14.0700653431        5.9972060186        0.8263055659
 H       -13.0747190271        7.8956873639        2.0356699719
 H       -12.0569212835        7.7395990676        0.7901027343
 H       -13.2951451090        8.5753155113        5.2973189226
 H       -12.7701105522        7.5463220293        6.5606149249
 H       -14.8488241175        6.4434316310        6.9749007975
 H       -15.5435826800        7.1953100189        5.6177747261
 H       -18.3247016370        5.2718692906        9.1742663547
 H       -18.2993115735        6.7602850548        9.9828195679
 H       -16.8307063455        5.5430839680        9.7624018086
 H       -17.1901476481        8.8300414182       10.2919537088
 H       -16.2049385586        9.9090651993        9.4338530870
 H       -15.5443032948        8.2706168171        9.9390109978
 H       -18.7649784540        9.0165042739        8.3244306104
 H       -18.3200152977        8.9267214450        6.5861528534
 H       -17.5544879887       10.1931455820        7.4914442460
 H       -11.9543430596        4.6215136703        4.9051305948
 H       -10.4145889906        5.0808984077        5.7040481376
 H       -10.5735626028        4.7704615936        3.7838792878
 H       -10.4702025912        8.2005772934        5.6781876793
 H       -10.9972476750        8.6996035030        4.1278288578
 H        -9.6883243121        7.5526857186        4.2575476136
 H       -13.6338277709        4.1639418862       -1.7276963841
 H       -13.9906259219        2.5240168313       -1.0657877088
 H       -12.4116807806        2.6915917721       -2.1153560947
 H       -11.8809004380        1.8100384865        0.6879158827
 H       -13.3108723886        2.6477991664        1.2203202679
 H       -11.6540481021        3.1272804675        1.8139730625
 H        -4.6558057363        4.1824456430       -0.1524056595
 H        -3.6263870689        3.7831270344       -1.5280560611
 H        -4.4930706009        2.4028330706       -1.0625328958
 H        -6.4181674214        5.7804608218       -2.8921906227
 H        -4.8277516023        5.8546830669       -2.5828360468
 H        -6.0200967436        5.5989427496       -1.1231381768
 H        -1.4920684317       -1.5664473250       -4.1333955163
 H        -2.8167753902       -2.3104566346       -4.8070259788
 H        -3.0447109821       -1.7743774727       -3.1817053285
 H        -2.5115867025       -0.3567336543       -6.7774959080
 H        -1.5794318996        0.5870837628       -5.5687197250
 H        -3.0786710436        1.3368711264       -6.1508816137
 H        -9.8312045661       -2.2197704191       -2.8599873287
 H       -11.3164280712       -1.8610675863       -3.6293306693
 H       -10.1050955295       -0.6659818979       -3.0889507056
 H        -9.3096965757       -3.6227992595       -4.7828438667
 H        -8.8607788941       -2.8323198202       -6.3905059094
 H       -10.5865934072       -3.0112706538       -5.9877974135
 Na       -8.9702580807        1.9471987001       -3.4711200093
