117

 C       -10.0660771176       -0.8875034027       -7.3882230572
 C        -9.6799994682       -0.4695904204       -5.9380128948
 O        -9.6660774427        0.7488108880       -5.5986877496
 C        -9.5105356797       -1.6269326013       -4.7538575155
 C        -7.9947616622       -1.2889812223       -4.3045009624
 O        -7.7601743617       -0.2700669983       -3.7204872646
 C        -6.8646349634       -2.1035099522       -5.0639229609
 C        -5.4737566398       -1.8972866840       -4.3708629642
 C        -4.7265130210       -0.7505995417       -5.0316045730
 O        -5.3113170633       -0.1203093456       -5.9487066399
 C        -3.2278777646       -0.3889958865       -4.4616881532
 C        -3.7002460765        0.8127192989       -3.5744183322
 O        -4.4714703616        0.5799064230       -2.6850529482
 C        -3.3252831807        2.2677696305       -3.9554963720
 C        -4.5487856774        3.0858970501       -4.3914964408
 C        -5.8647293022        3.1842451675       -3.5943716587
 O        -6.8574419901        2.9413504497       -4.2438360460
 C        -5.8406142615        3.7886515734       -2.1312211126
 C        -7.2767810419        3.4264657595       -1.5329987075
 O        -7.4193962258        2.2756667750       -1.1496367300
 C        -8.1815133498        4.4306662105       -0.8695718777
 C        -9.4290604416        3.8270211196       -0.2692978765
 C       -10.6266348243        3.5071711623       -1.2986688999
 O       -10.4666258371        2.9826979410       -2.3898367704
 C       -12.1149577565        3.4805656623       -0.6494915607
 C       -12.1884187950        5.1392113147       -0.4292038401
 O       -11.8167632774        5.9059267087       -1.2286217321
 C       -13.1470304319        5.5562407216        0.8491123427
 C       -12.6398269877        6.7951808219        1.8121935792
 C       -11.4467354628        6.3893857747        2.6637349322
 O       -10.3629060308        5.9890502103        2.1511775277
 C       -11.5036050335        6.5718687982        4.2821311537
 C       -13.0347346489        6.6744313365        4.7671956941
 O       -13.9855855248        6.0568918389        4.2957753465
 C       -13.3814085026        7.5745052526        5.8542686240
 C       -14.9439243889        7.4515078312        6.4846342554
 C       -15.2578087262        8.6899386034        7.3007003656
 O       -14.6676863966        9.6816034835        7.3172519340
 C       -16.6327921010        8.7171772286        8.2159485001
 C       -17.3836432191        7.2597494593        8.0850352014
 O       -17.5491849462        6.7405510087        7.0053578236
 C       -17.8640851834        6.5951772690        9.4077742091
 C       -16.1433097054        9.1299751860        9.6510292677
 C       -17.6352641110        9.7148062359        7.4118162196
 C       -10.8894992874        5.2984102921        4.8860580988
 C       -10.7717282683        7.8669367607        4.6148266163
 C       -13.1701019443        2.9411939744       -1.6252857232
 C       -11.9531054862        2.7603892441        0.6574023090
 C        -4.7913234449        3.1802222439       -1.1671020096
 C        -5.5699470845        5.2544408040       -2.3743566612
 C        -2.6891630341       -1.5224996784       -3.5997472074
 C        -2.2350273812       -0.0831996002       -5.5975205161
 C       -10.4561480473       -1.3668519309       -3.5858639820
 C        -9.6857812855       -3.0652949068       -5.2763541727
 H       -10.9291022695       -1.5985151544       -7.3247902469
 H        -9.2500427057       -1.4771629402       -7.6782026362
 H       -10.2705257368       -0.0709304717       -7.9725195492
 H        -6.8414930692       -1.7286776993       -6.1000225739
 H        -7.2586163088       -3.1090053614       -4.9703054101
 H        -5.0225254555       -2.8217567573       -4.3684563504
 H        -5.6984786716       -1.6168095203       -3.2990203164
 H        -2.5218598695        2.3502203086       -4.7340121136
 H        -2.8629145751        2.8279337422       -3.2078574165
 H        -4.8646357978        2.6131356194       -5.3721276647
 H        -4.1076097207        4.0876376733       -4.5179395070
 H        -8.3853296243        5.2356137988       -1.5266361092
 H        -7.4091765209        4.7905870072       -0.1014147114
 H        -9.7988499952        4.5262981861        0.5442435765
 H        -9.0123851256        2.8412504397        0.3395572735
 H       -13.4525617417        4.6463533539        1.4312504890
 H       -13.9873274452        5.9688271697        0.2653733186
 H       -13.3592098418        7.4157696668        2.3715131125
 H       -12.4082161337        7.5888258704        1.1227276649
 H       -13.4814409856        8.6048634443        5.3740217812
 H       -12.6624673014        7.7605592626        6.5596172927
 H       -15.1031909684        6.5804684233        7.0608259531
 H       -15.4900509974        7.2721081151        5.5082599415
 H       -18.6909179295        5.8979170832        9.4265727346
 H       -18.1743858399        7.3935856928       10.1056381641
 H       -17.0294773346        5.9538470773        9.8509388045
 H       -16.9300356874        9.4108572874       10.3882621754
 H       -15.4925063819       10.0054771208        9.5709377661
 H       -15.6430083263        8.3306860754       10.1062367981
 H       -18.5815602577        9.7234059539        8.0091324180
 H       -17.9268447680        9.3865438474        6.4779679804
 H       -17.1609919471       10.6501897086        7.2065328649
 H       -10.7502227723        4.5143089823        4.2038514754
 H       -11.6254337573        4.8176249461        5.5143552376
 H       -10.0022255480        5.5038352553        5.3474446662
 H       -10.5613143526        8.0954343441        5.6344083486
 H       -11.4965583926        8.6574274746        4.3230714237
 H        -9.7913883847        7.9830075854        4.0930971410
 H       -13.0915219661        3.6594892419       -2.4025301589
 H       -14.1365457125        2.9788086415       -1.1868030761
 H       -12.9181756619        2.0186012708       -1.9840524385
 H       -11.1266239855        1.9884612089        0.5319376792
 H       -12.9172708575        2.3212070050        0.9018158411
 H       -11.7386955693        3.4873395867        1.4218561112
 H        -5.1852091648        3.4612691321       -0.1693762749
 H        -3.8609467481        3.5782571664       -1.2961506983
 H        -4.7512878174        2.0947051591       -1.1947243051
 H        -6.3237764929        5.7762390317       -2.9365588715
 H        -4.7022934290        5.4898793046       -2.8899934472
 H        -5.4885480413        5.7273442164       -1.4158371362
 H        -1.7045931272       -1.2154434551       -3.2046261225
 H        -2.4723965412       -2.5617439003       -3.9874133472
 H        -3.3584663020       -1.8029189314       -2.7791047267
 H        -1.8587810564       -0.9750531516       -6.0931666500
 H        -1.3095342274        0.3817247401       -5.2555787744
 H        -2.7559840913        0.5029865412       -6.3238861184
 H       -10.3366272280       -2.1780347330       -2.7448102336
 H       -11.3852817020       -1.7712570938       -4.0555039203
 H       -10.3505172234       -0.3931669902       -3.0761468071
 H        -9.5292138319       -3.7943824895       -4.5002436819
 H        -9.1037894955       -3.2976081836       -6.1418458021
 H       -10.7736649283       -3.0557035959       -5.4046396419
 Na       -8.8295275548        1.9133368915       -3.5869613131
