117

 C       -10.1921308764       -1.0877013002       -7.4350873849
 C        -9.7361134464       -0.5202432817       -6.0307288042
 O        -9.5416854857        0.6638739383       -5.8681345376
 C        -9.5353091996       -1.5897448359       -4.7230863336
 C        -8.0052600489       -1.3918985144       -4.3966766419
 O        -7.6253315407       -0.4331924551       -3.7010905821
 C        -6.9212311486       -2.3894999839       -4.8510706468
 C        -5.4942018429       -2.0300593553       -4.2541200957
 C        -4.6543210042       -1.0182306093       -5.0015045477
 O        -4.9279144512       -0.5233563201       -6.0096518985
 C        -3.3362380398       -0.4921571136       -4.2210378182
 C        -3.7943518609        0.8293639239       -3.5941052647
 O        -4.4780466452        0.8191319227       -2.5783705071
 C        -3.2779041155        2.2468751373       -4.0201504966
 C        -4.5293471436        3.2177207330       -4.4218450195
 C        -5.8019860342        3.1550066350       -3.6905292195
 O        -6.8698118708        2.8114320490       -4.2434892313
 C        -5.9313778927        3.6549057582       -2.1035740913
 C        -7.3508148754        3.3520525456       -1.6068990708
 O        -7.6905657187        2.3050758056       -1.1083038940
 C        -8.3562418716        4.5736504826       -1.3905815338
 C        -9.5767665755        4.2721345449       -0.5677288776
 C       -10.5778231818        3.5109833627       -1.4054270255
 O       -10.2358578967        2.9165186965       -2.4337500860
 C       -11.9084350734        3.5305314189       -0.8298868567
 C       -12.2293071888        5.1662211164       -0.4220569006
 O       -11.7339904538        6.0983867739       -1.0649783448
 C       -13.2635775793        5.4559340270        0.7170244738
 C       -12.7034091062        6.5376694294        1.6539692887
 C       -11.6186845856        6.1888482546        2.7742386528
 O       -10.6964265076        5.6188096096        2.3366018979
 C       -11.6183491393        6.5979813656        4.2983147557
 C       -13.0744575487        6.6494030361        4.7587297851
 O       -14.0597613816        6.0505873932        4.3505996991
 C       -13.3329950680        7.6036106293        5.8149991596
 C       -14.7443558370        7.4726389079        6.4869540120
 C       -15.1501478120        8.7491314571        7.3033521675
 O       -14.2838179460        9.6820231559        7.4660831107
 C       -16.5767070207        9.0238635909        8.0543784871
 C       -17.4224460033        7.5654549263        8.0782610301
 O       -17.7862745801        7.0222535068        7.0209824816
 C       -17.8353476726        7.0568873238        9.4454827431
 C       -16.1790157820        9.2187300032        9.5193123208
 C       -17.2526931562       10.2873275465        7.5602105754
 C       -10.9160329432        5.4614699763        5.1029222223
 C       -10.8154597916        7.9879576157        4.4226087005
 C       -12.9637646346        2.6787144674       -1.8736355172
 C       -11.9437731902        2.7403587483        0.6515123565
 C        -4.9022597016        3.1582712751       -1.1520340809
 C        -5.9248410317        5.1818432097       -2.1959736993
 C        -2.6799220401       -1.3943939869       -3.1946882711
 C        -2.3657404693       -0.2732549981       -5.3941052033
 C       -10.4437391287       -0.9747594911       -3.5945229374
 C        -9.9676310291       -3.0166040567       -5.2377610810
 H       -11.2786259473       -1.3173102420       -7.3871625763
 H        -9.6437293027       -2.0781489498       -7.7800543416
 H       -10.0979252676       -0.1544439357       -8.1265210138
 H        -6.9411057843       -2.3925173305       -5.9793862871
 H        -7.2051425437       -3.3708548565       -4.4129893106
 H        -5.0705590879       -3.1025597057       -4.1501940097
 H        -5.7041768573       -1.7095074307       -3.2888707860
 H        -2.6228114985        2.4187740034       -4.8827680621
 H        -2.7325440430        2.6883256047       -3.1186065263
 H        -4.6519604696        3.0922519161       -5.4402909770
 H        -4.0317569637        4.1643935207       -4.2209287809
 H        -8.7306284994        4.8770017987       -2.4495995973
 H        -7.7239293524        5.3106003858       -1.0630144237
 H        -9.9548951886        5.0773878747        0.0565162481
 H        -9.2723852888        3.6195881298        0.1191959127
 H       -13.4965562696        4.6007292768        1.3970249848
 H       -14.0890691918        5.8887041674        0.2097601356
 H       -13.5154403325        7.1948224881        1.8314718043
 H       -12.0985755009        7.3544380447        1.1859798758
 H       -13.2524570510        8.5635955359        5.3981138264
 H       -12.5875269629        7.6075782264        6.7465255602
 H       -14.5742724292        6.4297164550        6.8509779555
 H       -15.3971159027        7.4322806319        5.6622565195
 H       -18.5176353617        6.1592396028        9.3452527900
 H       -18.4266686290        7.8186114211       10.0232683410
 H       -17.0804203910        6.6736202810       10.1208925867
 H       -17.0696502864        9.4750643491       10.1737464768
 H       -15.5036038389       10.0549877513        9.6642869707
 H       -15.7544291486        8.3230701210       10.0646560978
 H       -17.9876755606       10.6003982441        8.1976947146
 H       -17.7156243607        9.9165244327        6.5893331549
 H       -16.5490277091       11.0604215161        7.1898417773
 H        -9.9410796155        5.1475531510        4.5589061647
 H       -11.4552786775        4.4972375977        5.1722844683
 H       -10.5691125895        5.9451414422        6.1536200968
 H       -10.6963009916        8.2315159960        5.4687787832
 H       -11.0492089808        8.8514537403        3.9034293239
 H        -9.7601794399        7.7507494105        4.1845076391
 H       -12.5202887917        2.4310633437       -2.8612330761
 H       -13.9879848119        3.1365267749       -1.7806392526
 H       -12.9966857647        1.6215435601       -1.3251314209
 H       -11.5956568089        1.8274826985        0.3597032406
 H       -12.8228208673        2.9315265035        1.2305126131
 H       -11.2406276160        3.2233893385        1.3191818646
 H        -4.8787345762        3.7230203591       -0.2356473934
 H        -3.8770609130        3.0928560766       -1.7241593424
 H        -5.2420596734        2.1562594108       -0.7500430156
 H        -6.7041708829        5.6479055589       -2.8977500612
 H        -4.8854412478        5.5524878587       -2.5794958290
 H        -6.0013583729        5.6910801313       -1.2090040572
 H        -1.5730989353       -1.3780355674       -3.1925941329
 H        -2.9612907101       -2.4376349098       -3.3091828223
 H        -3.0677995502       -1.3131124203       -2.1523930554
 H        -2.1093350019       -1.2044213674       -5.9166095565
 H        -1.3498872716        0.0190819128       -4.9536937791
 H        -2.7631072496        0.4162312667       -6.1629955946
 H       -10.4376693651       -1.4702614811       -2.7184355766
 H       -11.4010990713       -1.0272635727       -3.9775243980
 H       -10.0417644210        0.0159150221       -3.4169679633
 H        -9.8819852534       -3.8618109548       -4.5338833425
 H        -9.2446099586       -3.2575300736       -6.0668057354
 H       -11.0186117475       -2.9298157758       -5.4964415259
 Na       -8.5637271051        1.5419633424       -3.4923616722
