117

 C       -10.2166895364       -1.0133022862       -7.4107462991
 C        -9.6504015160       -0.6221351354       -6.0988020163
 O        -9.5103996450        0.6261030942       -5.8827991159
 C        -9.4354429822       -1.4570053393       -4.8352110730
 C        -7.9688942143       -1.4778873568       -4.2329287565
 O        -7.5051834987       -0.5172029268       -3.6792255821
 C        -6.9331670874       -2.5214983609       -4.7631176880
 C        -5.4830685462       -2.1489959357       -4.1205324343
 C        -4.7585534524       -1.0267231838       -4.9811130017
 O        -4.9719515392       -0.8467790736       -6.1774831428
 C        -3.3553283275       -0.5080421776       -4.1871837248
 C        -3.8373224309        0.9094495371       -3.4417837544
 O        -4.5785879951        0.8298766968       -2.4941839723
 C        -3.3552770664        2.2292088939       -4.1180870376
 C        -4.5019472773        3.2351057045       -4.2698458677
 C        -5.7826612848        3.0399790572       -3.5154210164
 O        -6.7555435736        2.6990537151       -4.2129780672
 C        -5.9585959988        3.7264303185       -2.1212402749
 C        -7.4081027447        3.3999814041       -1.6428400930
 O        -7.7359548681        2.3294757776       -1.3242967743
 C        -8.3411106125        4.6103242891       -1.6489820174
 C        -9.4657405090        4.4133106366       -0.6430884408
 C       -10.5116030797        3.5132314716       -1.3350431482
 O       -10.2713874996        2.9160909714       -2.3284302711
 C       -12.0784691395        3.5066447129       -0.7235935319
 C       -12.4488310298        4.9868278825       -0.4716455068
 O       -11.7949867228        5.8398325141       -0.9945730579
 C       -13.4182464005        5.4859350867        0.7304935280
 C       -12.6942999807        6.6074259978        1.6870612832
 C       -11.5773587318        6.0522728727        2.6292067386
 O       -10.7164997756        5.1820595725        2.3439725799
 C       -11.6670338339        6.6018871102        4.1634326518
 C       -13.1546594056        6.7456537693        4.7194343008
 O       -13.9440442791        5.9065723304        4.2535196510
 C       -13.3638761324        7.6270907564        5.9463783826
 C       -14.7950311635        7.6461133549        6.6081943247
 C       -15.0266778834        8.8678041086        7.3433417067
 O       -14.1692938412        9.6729881123        7.4361168727
 C       -16.4330138668        9.0239350867        8.1920258138
 C       -17.5230682732        7.8625145716        8.1276928652
 O       -17.7646096087        7.3773396759        7.0114506887
 C       -17.9692784994        7.1863646582        9.3504785627
 C       -16.0998681480        9.4269972087        9.6728621635
 C       -17.0987870161       10.2756069334        7.5029891919
 C       -11.0753422587        5.5982018768        5.0454206618
 C       -10.9327443487        7.9309609766        4.1982761756
 C       -13.0368149268        2.9156446332       -1.7923593079
 C       -11.8851396286        2.6701208742        0.4372133032
 C        -4.8387109735        3.1625189055       -1.1488240036
 C        -5.6597482146        5.2325413431       -2.3094409619
 C        -2.7648535998       -1.3369920775       -3.0240392384
 C        -2.2758697304       -0.3739716812       -5.3068974668
 C       -10.4103968596       -0.9494915963       -3.7257878028
 C       -10.0642189716       -2.8683013521       -5.1083181677
 H       -11.3059883837       -1.1893832978       -7.1935358454
 H        -9.8259294516       -1.9746078971       -7.7383581909
 H       -10.1719585459       -0.2267790875       -8.1067988381
 H        -7.0004942940       -2.3911255197       -5.8971074163
 H        -7.2055294980       -3.4476974336       -4.4773799493
 H        -4.9327140376       -3.1269720946       -4.1157506935
 H        -5.7310838479       -1.8632587954       -3.0662155392
 H        -2.9550660942        2.1482842175       -5.2386732187
 H        -2.5382616231        2.6110869385       -3.5123602862
 H        -4.7399289776        3.2226227284       -5.3493597447
 H        -4.0054417845        4.2016711807       -4.0596298937
 H        -8.7910407591        4.7271456556       -2.6281829356
 H        -7.6964242839        5.4208616172       -1.5406081958
 H        -9.8868491260        5.2629038968       -0.2404543321
 H        -9.0402695998        3.8751494571        0.1969991032
 H       -13.8249273376        4.8040792645        1.5371593367
 H       -14.1879905308        6.0712063198        0.1841352978
 H       -13.5251093525        6.9754702092        2.3001494624
 H       -12.4169757627        7.6833604835        1.3371626221
 H       -13.2042653854        8.6704206361        5.7095016376
 H       -12.6543734335        7.4294959596        6.7855804541
 H       -14.7708630860        6.7022219701        7.0844818489
 H       -15.5457960344        7.5979364721        5.7304641960
 H       -18.5050048559        6.2892152733        9.0674301643
 H       -18.6325120372        7.7374999483       10.0300331504
 H       -17.1808338245        6.8968500285       10.0596474677
 H       -17.0403151196        9.2242246672       10.3501416155
 H       -15.8635786570       10.4855533286        9.7956622579
 H       -15.3203339167        8.9067075902       10.1810676861
 H       -18.0245279832       10.6406041790        8.0230746942
 H       -17.3428513406        9.8569476180        6.5065370919
 H       -16.3543840151       11.0813878598        7.2269689454
 H        -9.9600735272        5.7359660977        5.0095868511
 H       -11.2035358872        4.5267324548        4.7830582869
 H       -11.3503124550        5.8486119621        6.0861569319
 H       -10.9536464360        8.3530898123        5.1923516936
 H       -11.1172497602        8.7089418759        3.4331848245
 H        -9.7970867994        7.7615678230        4.0820834969
 H       -12.3114448794        2.8774849684       -2.6078411479
 H       -14.0248627363        3.4797678334       -2.0054232843
 H       -13.2136472844        1.8165987117       -1.6489789590
 H       -11.1155683261        1.9392964993        0.0489371630
 H       -12.7459825309        2.4571201597        1.0119100963
 H       -11.4406511158        3.3508402498        1.1380429094
 H        -4.8740032887        3.7719238113       -0.2227783642
 H        -3.8816580027        3.1609588303       -1.6918425936
 H        -5.1611945676        2.1590077806       -0.6827085526
 H        -6.3316468237        5.6720886952       -3.1502834798
 H        -4.6144933033        5.3132400766       -2.6984753943
 H        -5.6832062397        5.9398978985       -1.4612975134
 H        -1.7502431114       -0.9932320034       -2.9037040778
 H        -2.7606753579       -2.4357754636       -3.0037221821
 H        -3.2421168376       -1.1633300125       -2.0773498563
 H        -2.0355175913       -1.3456798349       -5.6833628021
 H        -1.2372051886        0.0102660719       -4.9890758866
 H        -2.6824018759        0.1131355334       -6.1397996928
 H       -10.2030144717       -1.5703313742       -2.8519938815
 H       -11.4040967299       -1.0878115474       -4.0470560060
 H       -10.2216323981        0.0733605292       -3.4714959153
 H        -9.8302879302       -3.5272186046       -4.2840074848
 H        -9.4050440055       -3.2942613126       -5.8504684557
 H       -11.1641175364       -2.8670686598       -5.3043794743
 Na       -8.5012546137        1.4366733693       -3.4929656343
