117

 C       -10.1928560721       -1.0072747872       -7.3103366134
 C        -9.6409940360       -0.4158780971       -5.9984688556
 O        -9.3299864922        0.7481780231       -5.8312821066
 C        -9.3666138242       -1.4962215740       -4.8209885799
 C        -7.8921135238       -1.4300669236       -4.4306686787
 O        -7.5913693603       -0.6266709688       -3.6026333418
 C        -6.8831506136       -2.5673686840       -4.7277914516
 C        -5.4882143648       -2.2848291945       -4.0565309670
 C        -4.6459396255       -1.3395265619       -4.8187353380
 O        -4.9286759782       -1.0597698044       -6.0151929042
 C        -3.4796250604       -0.5297811757       -4.2156449448
 C        -3.9169020288        0.8478519237       -3.6465310329
 O        -4.5764854189        0.7935216392       -2.6239979926
 C        -3.3854081043        2.0954642039       -4.1805081674
 C        -4.3443688138        3.3352220736       -4.3648638958
 C        -5.7571276601        3.0872293348       -3.5348572469
 O        -6.6581702794        2.5054900991       -4.0899943172
 C        -5.8331479936        3.8060540348       -2.2142415292
 C        -7.3264838550        3.5629375008       -1.5946776264
 O        -7.6957205708        2.3991057627       -1.5383389965
 C        -8.3802471934        4.6533661876       -1.7035578594
 C        -9.5165528667        4.4081800749       -0.7699584507
 C       -10.6578538228        3.6478560595       -1.4097250973
 O       -10.3908505942        2.8118325426       -2.2821999243
 C       -11.9896680488        3.4850501391       -0.6614647525
 C       -12.4088650284        5.0583845430       -0.2945329160
 O       -11.9530234552        5.8395266443       -1.0885089078
 C       -13.4183358601        5.4036192458        0.7678892846
 C       -12.7115147117        6.4506813485        1.6390279438
 C       -11.7507634290        5.8863502463        2.5860074861
 O       -10.9233765415        4.9835895239        2.2910862730
 C       -11.5970813738        6.5851411190        4.0764582769
 C       -13.2187236149        6.6957298678        4.6435348651
 O       -14.0094553175        5.8698814827        4.2816265100
 C       -13.4346707257        7.5650254852        5.8980702985
 C       -14.9250619268        7.5882598593        6.5450853189
 C       -14.9245572497        8.8821756498        7.5558639927
 O       -14.1781660172        9.8034243998        7.5347289771
 C       -16.3218311947        9.0829025835        8.2695415565
 C       -17.2998128953        7.9473555896        8.0984973198
 O       -17.7233842754        7.8191737077        6.9940661012
 C       -18.0564048031        7.2925153743        9.2926954463
 C       -16.0262580509        9.6593215928        9.7512866130
 C       -17.0230875070       10.3179584100        7.3954204443
 C       -10.9954130512        5.5978985079        5.1143440173
 C       -10.9684374563        7.9672943749        3.9260050994
 C       -13.1130867785        3.1121896387       -1.7779593816
 C       -11.8964237132        2.4513282918        0.5578865498
 C        -4.8559506957        3.2089847824       -0.9978352334
 C        -5.3705893535        5.2901519138       -2.4158161564
 C        -3.0178225025       -1.3347268127       -2.9988311794
 C        -2.3036225221       -0.3778199664       -5.1716202938
 C       -10.4143412439       -0.8872325389       -3.6871765403
 C        -9.9728974141       -3.0261413388       -5.0557553014
 H       -11.2170893382       -1.2839160865       -7.1843040318
 H        -9.6745957809       -1.8751848139       -7.4258645827
 H       -10.0975322113       -0.3951012147       -8.1486312364
 H        -6.7785431642       -2.7647356004       -5.7640583031
 H        -7.2867105023       -3.4579835659       -4.1395064300
 H        -5.0742660567       -3.2479231940       -4.0578460590
 H        -5.6806115004       -1.9657351816       -2.9611965752
 H        -2.9051403600        1.9654623515       -5.1508541321
 H        -2.6290034635        2.2933757453       -3.4029159872
 H        -4.4861863407        3.4079397209       -5.5072403030
 H        -3.6987842237        4.1954098825       -4.0981161456
 H        -8.7429264024        4.5971285989       -2.6514577500
 H        -7.8027638071        5.6557697694       -1.6391578050
 H        -9.9176622251        5.3944672393       -0.4896210025
 H        -9.2249965862        3.9007397284        0.2923165324
 H       -13.8331898033        4.5782069688        1.3645263691
 H       -14.1688093504        6.0445184609        0.1892868254
 H       -13.3546935574        7.3214631997        2.0027152730
 H       -12.1386459944        7.0714840530        0.9181451419
 H       -13.2787408942        8.6937407806        5.8585748131
 H       -12.8252697389        7.2561705868        6.6359369270
 H       -14.8998995585        6.6976151450        7.1189901781
 H       -15.6908091357        7.4866007178        5.7236850546
 H       -18.6657274214        6.4580841605        8.9415691921
 H       -18.7325565012        7.9868326025        9.7274900581
 H       -17.5482020524        7.0432785913       10.2674965015
 H       -16.7207831353        9.4115240794       10.4549493115
 H       -15.7452212940       10.7276154391        9.8504929079
 H       -15.0979848183        9.1889616826       10.1338283137
 H       -18.0384572388       10.5506545793        7.9390306671
 H       -17.1424658591       10.0876845723        6.3456517048
 H       -16.3647145532       11.1898416822        7.4689220167
 H       -10.0063750135        5.7772191988        5.4040805114
 H       -10.9960190943        4.5769016989        4.6926307932
 H       -11.5897136405        5.5718353089        5.9515514150
 H       -10.9941735811        8.4814452381        4.9227664360
 H       -11.4324252710        8.6367731597        3.0890132056
 H        -9.9138441954        8.0126556000        3.6474557743
 H       -12.5554176299        3.0900116836       -2.7324173565
 H       -13.9231757512        3.8130073317       -1.7563264654
 H       -13.4698042899        2.1667893692       -1.6556254222
 H       -11.1703877146        1.6313302126        0.3317147183
 H       -12.9486897881        2.2799752886        0.7596480487
 H       -11.7533440938        3.0422884718        1.4683405861
 H        -4.9899375368        3.8781432079       -0.0884709041
 H        -3.8649104587        3.1688991720       -1.3428605319
 H        -5.1981049823        2.3089796993       -0.5771529145
 H        -5.8440227084        5.6795368796       -3.2725345147
 H        -4.2927223157        5.3942871144       -2.4712525089
 H        -5.6784209361        5.9793645684       -1.6106439931
 H        -2.1552677277       -0.8480979536       -2.4767151663
 H        -2.7315740365       -2.3585278159       -3.2208296696
 H        -3.7088554283       -1.4812649930       -2.1836647594
 H        -1.9352301792       -1.3872159768       -5.3146530197
 H        -1.5139527045        0.1483577271       -4.8345503096
 H        -2.5999849056       -0.0930015903       -6.1772548374
 H       -10.1919948719       -1.3370304548       -2.6615169381
 H       -11.5088277851       -0.9336573745       -4.0328229677
 H       -10.2172717515        0.2221507472       -3.6527113140
 H        -9.8219810737       -3.5855892155       -4.1383190707
 H        -9.3038329528       -3.5907409126       -5.6731974373
 H       -11.0356440544       -3.0423084545       -5.3524277882
 Na       -8.5744549222        1.4645577868       -3.5160826303
