117

 C        -9.8415553118       -0.7174630432       -7.1103347579
 C        -9.5357496501       -0.3915326691       -5.7328382435
 O        -8.9923354698        0.7154129687       -5.4629287832
 C        -9.5070692949       -1.4750111086       -4.7415383355
 C        -7.8891497372       -1.4172725367       -4.0338536648
 O        -7.6369352255       -0.4977618328       -3.3891243332
 C        -6.9645382852       -2.5810531207       -4.3847778888
 C        -5.5622426892       -2.5075236328       -3.8182948268
 C        -4.6578718666       -1.6179756089       -4.6731249425
 O        -4.7750331777       -1.5659741548       -5.9161564490
 C        -3.4767105103       -0.9278266309       -4.0972745008
 C        -3.9905374293        0.5419333165       -3.7795187052
 O        -4.7768517774        0.7137385264       -2.8731164990
 C        -3.3620831325        1.7276768003       -4.4913867157
 C        -4.0042992855        3.1289700049       -4.2895518235
 C        -5.4855438420        3.0588980087       -3.5766150192
 O        -6.4627014501        2.5305711745       -4.1441936119
 C        -5.7413151814        3.9602858458       -2.2647527148
 C        -7.3353024606        3.7709956368       -1.9091341121
 O        -7.5397715092        2.6464545891       -1.6152981089
 C        -8.4390958546        4.8250655987       -1.8729440517
 C        -9.5999039634        4.3000215510       -1.0048802129
 C       -10.7205845118        3.5025207531       -1.5915342943
 O       -10.5840797720        2.5792438077       -2.3753272483
 C       -12.2156402395        3.4198233191       -0.9092390542
 C       -12.6053626999        4.9669934613       -0.5586810339
 O       -12.1877179428        5.9447307118       -1.0890381513
 C       -13.6968458338        5.3038647379        0.5990783573
 C       -13.0796706632        6.0905956951        1.7986805676
 C       -12.0882573781        5.5438273059        2.8589327913
 O       -11.4544527513        4.5122329794        2.5410440962
 C       -11.8800995291        6.5718820480        4.1213888625
 C       -13.2916410017        6.6843370032        4.8814333889
 O       -14.2282678550        6.0280912993        4.4806798226
 C       -13.3615212696        7.7778965193        5.8820011823
 C       -14.7848446602        7.9652477134        6.4786957093
 C       -14.8064552606        9.1286925756        7.4058721658
 O       -13.7938892618        9.5253160736        7.7737370076
 C       -16.1467598533        9.5556545507        8.0527703268
 C       -17.2667115693        8.4492916521        7.8929442444
 O       -17.7094129188        8.0555034137        6.8539464739
 C       -17.8510562104        7.8828721896        9.1523611712
 C       -15.8844055632        9.6750240879        9.5522156067
 C       -16.5453187790       10.9724485122        7.5296081293
 C       -10.7140030925        5.7310293392        5.0210698044
 C       -11.4123690616        8.0364929093        3.7237101264
 C       -13.2664965559        2.9377460654       -1.9128845283
 C       -12.0448476090        2.6008822956        0.3979747346
 C        -4.7692789329        3.3012124321       -1.2108314476
 C        -5.2711311431        5.4923547305       -2.4350481621
 C        -3.0868480063       -1.4717175929       -2.7378965921
 C        -2.2800015344       -1.1316025076       -5.0342872359
 C       -10.4198901278       -1.2767717541       -3.4409130967
 C        -9.7954783068       -2.8895244859       -5.3040971644
 H       -10.8742313468       -1.2863280056       -7.2064884317
 H        -8.9802045066       -1.3397848358       -7.4578326920
 H        -9.8110028883        0.1679030011       -7.8121423605
 H        -6.7976114960       -2.6499909089       -5.5093445520
 H        -7.5341011840       -3.3408005773       -3.9808465051
 H        -5.0930365707       -3.5175218567       -3.7536779133
 H        -5.6396835797       -2.0765641194       -2.7206998698
 H        -3.2047091176        1.4386862691       -5.6138510667
 H        -2.4954452139        1.7808429840       -3.8525134365
 H        -4.1172682376        3.6482508892       -5.2295522734
 H        -3.3629380040        3.7454938577       -3.7062361328
 H        -8.6226860375        5.1469037891       -2.8615025222
 H        -8.0600772739        5.6965152673       -1.3118939305
 H        -9.9212635752        5.1579579821       -0.6407068773
 H        -9.2652834501        3.6357085823       -0.2352190008
 H       -14.2347170374        4.4298654424        0.9958574555
 H       -14.4017597225        6.0070331231        0.1404453415
 H       -14.0323588844        6.3886483879        2.2986881892
 H       -12.8365631754        7.0230175965        1.2444899467
 H       -13.3159532346        8.8143288473        5.4675528206
 H       -12.7626233198        7.8130239736        6.7741479810
 H       -14.9912317809        7.0588257561        6.9849826069
 H       -15.5488363278        8.0463962473        5.5827300665
 H       -18.5576331803        7.1466983662        8.8637654971
 H       -18.4137675664        8.5912932437        9.7634252181
 H       -17.2610125018        7.6053668450       10.0519108466
 H       -16.5951917571       10.3601032496       10.0007600918
 H       -14.8550013876       10.1320059424        9.7553474044
 H       -15.8042339699        8.8228522434       10.2020634062
 H       -17.2640270362       11.4200363057        8.3066799998
 H       -16.9784490823       10.9860411258        6.5736637735
 H       -15.6940938367       11.6040923204        7.6646466139
 H       -10.0317144869        6.4170760209        5.6190303355
 H       -10.0249875335        5.1183423886        4.2826510005
 H       -11.1546938132        4.8658410439        5.5363570774
 H       -11.0533626663        8.6507167545        4.4642967887
 H       -12.2383435718        8.5689245101        3.2497939061
 H       -10.7573854049        8.0530527186        2.8912038536
 H       -13.4369488508        3.8623562709       -2.5753113756
 H       -14.1032024842        2.4356011787       -1.3000273586
 H       -12.8170872938        2.1522068050       -2.5420061791
 H       -11.9133735938        1.5640085829        0.0640808651
 H       -12.9286883291        2.7772991519        0.9973235831
 H       -11.1746918567        2.9411454474        0.9480502379
 H        -4.9906569918        3.7881226868       -0.1333366176
 H        -3.7093574315        3.5317157942       -1.3547072647
 H        -5.0414011634        2.2422332767       -0.9638159601
 H        -5.8319595615        6.0868701771       -3.1971933354
 H        -4.1798956405        5.4475591843       -2.4606774204
 H        -5.4725228109        6.0801997210       -1.4890050476
 H        -2.2085491094       -0.9608772888       -2.3639198505
 H        -2.8301090603       -2.5472457962       -2.7122465625
 H        -3.6701446915       -1.2782756910       -1.8820355639
 H        -2.1007920696       -2.2278877093       -5.2427888363
 H        -1.3944972029       -0.6771642166       -4.6002668573
 H        -2.3779871933       -0.6772000850       -6.0656203270
 H        -9.9591871933       -1.7361392276       -2.6516545169
 H       -11.2445215471       -1.8364657133       -3.6812068236
 H       -10.8833404639       -0.3941771948       -3.2951414131
 H        -9.5892625386       -3.6437000098       -4.5452678290
 H        -9.3378042807       -3.2063890433       -6.2348927396
 H       -10.9124284919       -2.9470398368       -5.4970276232
 Na       -8.5629695317        1.7696255653       -3.5396166743
