117

 C        -9.7247039992       -0.6273870216       -7.1571014713
 C        -9.3793728079       -0.2488750060       -5.6709616112
 O        -9.1176126486        0.8610307491       -5.3559241067
 C        -9.4636838622       -1.6108960632       -4.5734580704
 C        -8.0448884349       -1.4926349814       -4.0074652195
 O        -7.7220976808       -0.5064466973       -3.3646959604
 C        -7.0355187339       -2.7038564876       -4.2909923866
 C        -5.6162242174       -2.4345524000       -3.6828257437
 C        -4.5985503064       -1.8846285856       -4.6630365331
 O        -4.8503457204       -1.6915347749       -5.8333620626
 C        -3.3372187196       -1.0366454704       -3.9909747717
 C        -3.8919398999        0.4421938932       -3.7704297572
 O        -4.7096791304        0.5659816762       -2.8908203994
 C        -3.4745941446        1.6896884280       -4.6140042235
 C        -4.0360642405        3.0247552893       -4.0188564704
 C        -5.4937698158        3.1481588420       -3.6780147703
 O        -6.3448196548        2.7690018650       -4.4224172828
 C        -5.7334325447        3.8726849965       -2.2838280078
 C        -7.3136459892        3.7075599855       -1.9311550579
 O        -7.5594619438        2.5835592562       -1.4875063636
 C        -8.4886503764        4.8195077620       -2.0013333395
 C        -9.6906877531        4.2887152951       -0.8743352597
 C       -10.7894734835        3.3869818686       -1.5816064326
 O       -10.5482617678        2.6204756443       -2.5470024933
 C       -12.2573444423        3.5547778813       -0.9538444925
 C       -12.7443773234        5.0526915311       -0.5576495428
 O       -12.1075444074        5.9319372505       -1.1412787499
 C       -13.8330079006        5.2496177128        0.4167107896
 C       -13.3505420886        5.9890912684        1.7673432712
 C       -12.1985169107        5.5407418768        2.7174694425
 O       -11.5510566993        4.5043960862        2.8404353736
 C       -11.9660918778        6.5222051904        3.9203161010
 C       -13.1804953770        6.7174591448        4.8290206155
 O       -14.1710873172        6.0527193468        4.7155547323
 C       -13.2299743129        7.7673763135        5.8915851461
 C       -14.8151085627        8.0421779050        6.3606812927
 C       -14.8198930305        9.1001607169        7.5318481715
 O       -13.7262421063        9.5964566837        7.8911732005
 C       -16.0894836750        9.6957259858        8.1409658561
 C       -17.3615396220        8.5997341874        7.8295693191
 O       -17.5617137564        8.2718668884        6.6829082046
 C       -17.9315215040        8.0626046467        9.1276947122
 C       -15.6844128086        9.8583916355        9.6156093060
 C       -16.3919129587       10.9761540045        7.4878573920
 C       -10.8895299120        5.9180949848        5.0248675148
 C       -11.4716868839        7.8447097453        3.6670417346
 C       -13.2496680875        2.8367292844       -1.9991798661
 C       -11.9591224841        2.5373819513        0.2024597722
 C        -4.7622411991        3.3652570465       -1.2983254269
 C        -5.4292792924        5.3814770502       -2.6150820860
 C        -3.0483093248       -1.5663085137       -2.5295475088
 C        -2.1723280354       -1.2298277089       -5.0523682333
 C       -10.4378361973       -1.3485856116       -3.4200926788
 C        -9.7291058837       -2.8723289075       -5.2719751869
 H       -10.5996477046       -1.1697333153       -7.2249336198
 H        -8.9088165412       -1.0710734736       -7.6991396063
 H        -9.8666327582        0.3317854721       -7.6949958458
 H        -6.7741926797       -2.7252522012       -5.2989776868
 H        -7.5962593108       -3.6455061145       -3.9045035697
 H        -5.1428946447       -3.3787971950       -3.3947215123
 H        -5.6145679101       -1.7786316119       -2.7300423786
 H        -3.8993449044        1.4987209002       -5.5350034794
 H        -2.3754890237        1.8725020060       -4.5214678179
 H        -3.9966922934        3.7880528154       -4.8794996921
 H        -3.3564640090        3.4875773911       -3.2950371949
 H        -8.7661420822        4.7187357990       -2.9786275939
 H        -8.1890163034        5.8887736027       -1.8043532771
 H       -10.1818815317        5.3349970351       -0.6408781918
 H        -9.3175956883        3.7838447872        0.0520435558
 H       -14.2526622761        4.2963201143        0.7644568181
 H       -14.6906299146        5.8706540512       -0.0949619463
 H       -14.3714737942        5.9895403159        2.3524413986
 H       -13.2860486205        7.0201745362        1.4151852451
 H       -12.9881067910        8.7678632649        5.5338091401
 H       -12.7666751064        7.7367522430        6.7974717923
 H       -15.1475959627        7.0344455066        6.6892692064
 H       -15.4761857368        8.3287625386        5.5400504377
 H       -18.8799780878        7.5823372818        8.8851424238
 H       -18.0098950136        8.6211845155        9.9949888868
 H       -17.2191469089        7.4006946817        9.6291845375
 H       -16.3497019094       10.3253462125       10.2433542437
 H       -14.7459800918       10.4764005020        9.7197325786
 H       -15.3327529134        8.8860412641       10.0840447866
 H       -16.9973770978       11.5892139434        8.2063663542
 H       -16.9458056576       10.8891662990        6.5174774964
 H       -15.4602900054       11.5662545811        7.5018282286
 H       -10.7629394219        6.6304902811        5.8750715102
 H        -9.8889790690        5.7572195112        4.5407671996
 H       -11.1481088023        4.8672595540        5.2134184675
 H       -11.0863277679        8.4803832808        4.5156160384
 H       -12.2746739689        8.4621414655        3.1877676702
 H       -10.7802334416        7.8694761807        2.8816335160
 H       -13.9245441111        3.6273618227       -2.4757107594
 H       -13.6318386451        1.9063524782       -1.6046602299
 H       -12.5081965360        2.5520257640       -2.7855254186
 H       -11.8525626096        1.5442590079       -0.1643500821
 H       -12.8520091696        2.6806859873        0.8562391743
 H       -11.0647204435        2.9120863916        0.7258747638
 H        -5.0372674356        3.8421977571       -0.2928251423
 H        -3.6618611185        3.6411937324       -1.3824579043
 H        -4.9796071770        2.3221106978       -1.0834690084
 H        -6.2368246824        5.9141531395       -3.0953048265
 H        -4.4008690792        5.3612491356       -3.0765334416
 H        -5.2235306167        5.9653744821       -1.6423518408
 H        -2.0330222561       -1.4275929281       -2.1459570350
 H        -3.2191783343       -2.5607543818       -2.3061589815
 H        -3.5029367689       -1.0068285021       -1.7462064728
 H        -2.2042588505       -2.3237328947       -5.2555298268
 H        -1.2117793331       -0.9130101578       -4.8560037729
 H        -2.4029250139       -0.7862556738       -6.0616610224
 H       -10.2725425919       -1.9298460012       -2.5705612419
 H       -11.4399055072       -1.5312101988       -3.7823942302
 H       -10.5904465418       -0.3044826071       -3.2774457479
 H        -9.7003961542       -3.7506023147       -4.5743741308
 H        -9.1321451306       -3.0577419117       -6.1840891935
 H       -10.7661642367       -2.8146962366       -5.6296468101
 Na       -8.4276488805        1.7898967315       -3.4586761819
