117

 C        -9.6250241251       -0.5379447715       -7.1262785793
 C        -9.4298098149       -0.3149517767       -5.6197436093
 O        -9.3165255931        0.8377094613       -5.2733980796
 C        -9.4381199068       -1.5502468243       -4.6663815100
 C        -8.0350306917       -1.5207741469       -3.9500183349
 O        -7.5963832092       -0.5510653692       -3.2360532226
 C        -7.0666326444       -2.7101957274       -4.1794871947
 C        -5.7133511358       -2.3360115945       -3.5155446460
 C        -4.6873182846       -1.7633217338       -4.5358382734
 O        -4.8592738686       -1.8882198565       -5.6894019148
 C        -3.3506740502       -1.1537197716       -3.9275260535
 C        -3.8475244154        0.3861124415       -3.7708979886
 O        -4.6690587171        0.5087294295       -2.8859867886
 C        -3.5938010872        1.5246414613       -4.7884586144
 C        -3.8725253275        2.8800005851       -4.0572536031
 C        -5.4505039286        3.1532764329       -3.8267346589
 O        -6.3598689427        2.8947421854       -4.5750995455
 C        -5.8430714746        3.9154494460       -2.3207847272
 C        -7.2912187701        3.6085376162       -1.7939522436
 O        -7.5902869902        2.4694003487       -1.3250374076
 C        -8.3883055469        4.5661524697       -1.9761506924
 C        -9.6293843985        4.3676659150       -1.0709235204
 C       -10.7517069175        3.5595671305       -1.7553465998
 O       -10.4154483059        2.7462824355       -2.6146217942
 C       -12.0724088020        3.5425719243       -1.0838848058
 C       -12.6030529933        4.9243156456       -0.6180229385
 O       -12.1314041854        5.9366455694       -1.1519582396
 C       -13.6887914327        5.0322267432        0.4354622637
 C       -13.5022255069        5.8913715638        1.9020131729
 C       -12.3671899325        5.5003835668        2.8265487140
 O       -11.7976555551        4.4530988982        2.7018363118
 C       -12.0056267202        6.5915642349        3.9767396480
 C       -13.4315701586        6.7685455571        4.8864021053
 O       -14.2593771296        5.8522300477        4.8073275638
 C       -13.2320048822        7.8279979419        5.9036939626
 C       -14.6654070186        8.1934139064        6.3275663575
 C       -14.6831150642        9.1190981883        7.5230249583
 O       -13.6037553978        9.6174240380        7.9396511372
 C       -15.9889162399        9.7098769990        8.1954436154
 C       -17.2171306211        8.7352334143        7.9672414572
 O       -17.4657443263        8.5865580525        6.7418127633
 C       -18.0676045879        8.1490814535        8.9930195973
 C       -15.6914635484        9.9777814333        9.6830083524
 C       -16.3209555173       11.0561863654        7.3920528489
 C       -10.9976847061        5.9763872142        4.9382892316
 C       -11.3623187059        7.9354551731        3.3318017850
 C       -13.3015522792        2.8477850494       -2.0580869932
 C       -12.0658987269        2.4825596180        0.2335039644
 C        -4.9810216580        3.4336478547       -1.1693178629
 C        -5.6200081377        5.4383344595       -2.7878239246
 C        -2.9036383554       -1.7266732884       -2.6077675969
 C        -2.1658077254       -1.2339798172       -4.8825139611
 C       -10.4575090448       -1.2275130465       -3.5001309506
 C        -9.7220630105       -2.8969615491       -5.3582905841
 H       -10.4621886237       -1.1159137029       -7.3369111068
 H        -8.7314906302       -0.8851484006       -7.5775526205
 H        -9.7206228820        0.3906554721       -7.5365648685
 H        -6.8360885621       -2.7995384560       -5.2321974992
 H        -7.5378821126       -3.6670592236       -3.6911004856
 H        -5.2209296008       -3.2353429917       -3.0914128355
 H        -5.8483642991       -1.7025545941       -2.7222433942
 H        -4.4426046792        1.3090800693       -5.3481607154
 H        -2.6319693206        1.5503199424       -5.2772447168
 H        -3.5100705998        3.7952645313       -4.6089754206
 H        -3.3520216093        2.9869685958       -3.0559592663
 H        -8.5386335520        4.3335140000       -3.1182666343
 H        -8.0543315130        5.5720959226       -1.8573747596
 H        -9.7555472995        5.4374681389       -0.5858851998
 H        -9.4047319298        3.5489413351       -0.2808792486
 H       -14.2333222066        4.1097072877        0.7445488949
 H       -14.4111001607        5.6275940157       -0.1872115838
 H       -14.5303398130        5.8908054409        2.2623874098
 H       -13.3783551459        6.9028690844        1.5170240391
 H       -12.6787094036        8.6867878919        5.6916430768
 H       -12.7799430098        7.4291240765        6.8598513443
 H       -15.1852635712        7.2011158253        6.4509093732
 H       -15.1836613311        8.6704685595        5.5802984096
 H       -19.0540020660        8.0955321319        8.5306705077
 H       -18.0581575160        8.4991726807       10.0184304013
 H       -17.7228047069        7.2111013824        9.3219762681
 H       -16.5775314473       10.2944620188       10.3183975827
 H       -15.1248610846       10.8488089459        9.7644126647
 H       -15.0951542259        9.2529038133       10.2174549814
 H       -16.9903995712       11.7232164445        7.8613299012
 H       -16.7508274431       10.7802472540        6.3593527845
 H       -15.3526473365       11.6367684059        7.3989289891
 H       -11.0916228464        6.2888670917        5.9614241468
 H       -10.0510212126        6.1891800169        4.6326714171
 H       -11.0058207424        4.9044933723        4.7332747878
 H       -10.9314411195        8.7192147126        4.0368040921
 H       -12.0239778574        8.5430453585        2.6905210448
 H       -10.5707017304        7.6735359194        2.5533188377
 H       -14.1193852944        3.4919550650       -1.9828892899
 H       -13.5051844253        1.9037001806       -1.6267691660
 H       -12.9825395062        2.7466319814       -3.1069611318
 H       -11.7573823383        1.4477552027       -0.0117337260
 H       -13.1015137956        2.5517243474        0.6553415565
 H       -11.3827713796        2.9747972329        0.9291989498
 H        -5.2263620903        3.7369755463       -0.2435239412
 H        -3.9384843880        3.7930063160       -1.3154108004
 H        -5.0508297284        2.3321082316       -1.1555701377
 H        -6.5237499550        5.9521170560       -3.1564399088
 H        -4.7231274112        5.4937837533       -3.4237252107
 H        -5.3362979927        5.9690677248       -1.9053881123
 H        -1.8715733606       -1.7056818217       -2.3096492632
 H        -3.1201645784       -2.7480750365       -2.3399968999
 H        -3.3041138745       -1.1579881401       -1.7574677515
 H        -1.8996366566       -2.2258655197       -5.0665022865
 H        -1.2674770868       -0.6508565126       -4.5418227495
 H        -2.3684385563       -0.7820107293       -5.7992631406
 H       -10.5217356724       -2.1825504094       -2.8541949005
 H       -11.4917257540       -0.9262458993       -3.8164250005
 H       -10.2214330836       -0.2706762487       -2.9431637466
 H        -9.8448697820       -3.6508315666       -4.5570365801
 H        -8.9306698127       -3.1854970034       -6.0872027257
 H       -10.6223059019       -2.9102031391       -5.9364448317
 Na       -8.3264401831        1.7833621035       -3.3515087218
