117

 C        -9.3228464183       -0.5119722126       -7.2465584768
 C        -9.5064196311       -0.1660958773       -5.6939645152
 O        -9.6031256410        0.9470476806       -5.2694343720
 C        -9.3465974704       -1.3584041204       -4.6045465580
 C        -8.0291647059       -1.4462816631       -3.7913175931
 O        -7.5954906253       -0.4818161805       -3.0591300824
 C        -7.2414475406       -2.8254713655       -3.7950322067
 C        -5.7823524041       -2.4507450563       -3.2166381596
 C        -4.7448273989       -2.0384806384       -4.3327857436
 O        -4.8344664666       -2.3474042917       -5.4591316645
 C        -3.4110056606       -1.1861849872       -3.7921985415
 C        -3.9912080061        0.1593032874       -3.4569393025
 O        -4.4123346052        0.2648382866       -2.3239381530
 C        -4.1556598568        1.2068313867       -4.6249567004
 C        -4.2372860127        2.6687867218       -4.2129372308
 C        -5.5733556584        3.0171181421       -3.5842556555
 O        -6.5027032597        2.5048080374       -4.1543156498
 C        -5.6809248274        4.0199386425       -2.4397393809
 C        -7.2579762275        3.5424515080       -1.7069282073
 O        -7.4711804924        2.3964029090       -1.3396758633
 C        -8.2233769001        4.6674638240       -2.0098062378
 C        -9.5786914068        4.3739851262       -1.1265489809
 C       -10.6433932783        3.5333206323       -1.7728322832
 O       -10.4154419972        2.8433361772       -2.7986540743
 C       -12.0159252623        3.4466688006       -1.0859725281
 C       -12.5776190838        4.6157210479       -0.4180296437
 O       -12.1844989396        5.7576506297       -0.6974598129
 C       -13.7812642071        4.6216943387        0.4323471240
 C       -13.6181591939        5.7371475740        1.5077654844
 C       -12.6273550628        5.3458913105        2.5741058291
 O       -12.1178827978        4.2471443059        2.5633147273
 C       -12.2268431360        6.4327713055        3.6468013495
 C       -13.3117364387        6.6605486888        4.8274143127
 O       -14.3950185305        6.0960382002        4.7916631462
 C       -13.1598479591        7.8757759509        5.8430488559
 C       -14.5104476046        8.5217745007        6.2797457499
 C       -14.5001931360        9.3916304141        7.5676759250
 O       -13.5651599437        9.5531109681        8.4005813766
 C       -15.8475900724       10.0270227104        8.1064696083
 C       -17.0573400182        9.2855268986        7.8199730221
 O       -17.3699036512        9.0771992909        6.6571421231
 C       -17.8692351018        8.5946121007        8.9135256362
 C       -15.7379425268       10.3533686440        9.6574511187
 C       -15.9229736449       11.5538648092        7.5060127075
 C       -11.0116724436        5.8423224142        4.3386811477
 C       -11.8891283630        7.7834353968        3.0316392546
 C       -13.1104976782        3.0348674237       -2.1953942614
 C       -11.7461835673        2.2410585375       -0.1033069870
 C        -4.5210627058        3.7503977076       -1.4096817574
 C        -5.4368627082        5.4631524089       -3.0375974533
 C        -2.7539243400       -1.7192730251       -2.4917331083
 C        -2.4403823180       -1.1680484932       -4.9604885818
 C       -10.5569929435       -1.2703382687       -3.5677189070
 C        -9.5330218100       -2.7152916281       -5.3314655072
 H       -10.2138885933       -0.9567419696       -7.7237819179
 H        -8.3707282256       -1.1607734668       -7.4062352875
 H        -8.9487188078        0.3866373496       -7.7800666790
 H        -7.1232448984       -3.0517933843       -4.7920658222
 H        -7.5490069191       -3.7322325461       -3.1479934457
 H        -5.2947605754       -3.4453386983       -2.9179153758
 H        -5.8143795920       -1.8176242538       -2.2687233218
 H        -5.0810322694        1.0671853530       -5.1428808534
 H        -3.2155960648        1.1188020459       -5.3125077227
 H        -4.1421585294        3.2846625090       -5.1167349515
 H        -3.4780577060        3.0224904448       -3.5449275954
 H        -8.4152611001        4.4820449526       -3.0091029191
 H        -7.6516840785        5.5810293430       -1.8542887025
 H       -10.1391162898        5.3569826116       -0.8718833734
 H        -9.3291946426        3.9095561322       -0.1877466202
 H       -14.0441675160        3.6735269940        0.8602976026
 H       -14.5824377932        4.7594783184       -0.3706796959
 H       -14.6373592762        6.1116236372        1.9205861156
 H       -13.1980520144        6.4902521518        0.8484528640
 H       -12.8327266911        8.6870578555        5.1753798537
 H       -12.4113375879        7.9063448463        6.5954873803
 H       -15.3470606434        7.7239040756        6.3851343367
 H       -14.8479659788        8.9989982083        5.3676873240
 H       -18.7914370849        9.1352947216        9.2067522958
 H       -17.2770004407        8.3064521277        9.7711136964
 H       -18.1848326728        7.5694675936        8.6763614166
 H       -16.5099764456       11.0691422306       10.0012056435
 H       -14.8906290426       10.8534986490       10.0636098096
 H       -15.9376576282        9.4515530196       10.2912768073
 H       -16.8680713691       11.9531410378        7.7188806137
 H       -15.7652080515       11.6168132467        6.3996633237
 H       -15.1804589346       12.0592269609        8.0996431013
 H       -11.2602598024        5.9973900662        5.4537886582
 H       -10.1316322496        6.4472283447        4.1112207761
 H       -10.7734903273        4.7269409101        4.0820423622
 H       -11.4018708543        8.4060862383        3.7888810074
 H       -12.7201673763        8.3651147392        2.7835759551
 H       -11.2410146016        7.8068789404        2.2203450389
 H       -13.7276971827        2.1892882201       -1.8388321674
 H       -12.4980000316        2.5836982768       -2.9828389682
 H       -13.5728530169        4.0280180578       -2.5677371969
 H       -10.9311125662        1.6302907221       -0.3842344285
 H       -12.5971161740        1.6905943059       -0.4887164565
 H       -11.6118784930        2.4762299243        0.9559787522
 H        -4.6057246837        4.4435121810       -0.5754862917
 H        -3.4195806863        3.9041531331       -1.8312731246
 H        -4.4405459681        2.6780976267       -0.9814995668
 H        -5.5328596510        5.3470890870       -4.1254351343
 H        -4.3209270555        5.5911347141       -3.0876579439
 H        -5.9968980757        6.3398707042       -2.6305703961
 H        -2.1670408376       -0.9633886891       -1.9446322051
 H        -2.0006181079       -2.4153850669       -2.5405046160
 H        -3.3897775431       -2.1731781596       -1.7458426153
 H        -1.8017054706       -2.0650355115       -4.8497291714
 H        -1.7794101503       -0.2753605581       -5.0466636873
 H        -2.9661382379       -1.0951109146       -5.9428958753
 H       -10.7739908114       -2.1006566413       -2.9841853871
 H       -11.4414017551       -0.8792925251       -3.9639571045
 H       -10.2152709953       -0.5155221425       -2.9182994387
 H        -9.4619261334       -3.5690426927       -4.6513486970
 H        -8.9695299287       -2.8753873049       -6.2526634385
 H       -10.5472424756       -2.8329032613       -5.6299761401
 Na       -8.5361377514        1.6783523369       -3.4951909615
