117

 C        -9.2115319115       -0.5325213277       -7.1117880321
 C        -9.3385609694       -0.2383024470       -5.6733681653
 O        -9.5851998841        0.9046782535       -5.3829171144
 C        -9.4061968453       -1.3534276342       -4.6459908897
 C        -7.9930261044       -1.4150081128       -3.8631362594
 O        -7.6576572867       -0.4672274687       -3.1019336599
 C        -7.2023373092       -2.6549885450       -3.7762525789
 C        -5.7991548855       -2.6012097102       -3.0980579487
 C        -4.7417099657       -2.2137062543       -4.1220482652
 O        -4.8894025612       -2.4544177776       -5.3237025178
 C        -3.5006596159       -1.2848298947       -3.8074287296
 C        -4.1154941536        0.1671372237       -3.3589366560
 O        -4.3464516015        0.3798066068       -2.1814715391
 C        -4.2248785620        1.1050109105       -4.5218864737
 C        -4.3405201249        2.6246079035       -4.2844826433
 C        -5.6172859553        2.8902527465       -3.5261312479
 O        -6.6287246819        2.2994813985       -3.8596017537
 C        -5.6607075610        3.9305954597       -2.4233384286
 C        -7.1114815277        3.7838099592       -1.8588790945
 O        -7.2849503220        2.6295343097       -1.4608926678
 C        -8.2274759720        4.7043549034       -1.9395382599
 C        -9.5542982845        4.4947165710       -1.0820475313
 C       -10.5447770065        3.5549488215       -1.8272361978
 O       -10.2612697301        2.8995859261       -2.7829466950
 C       -12.0865675488        3.2500441444       -1.2832562248
 C       -12.6171773933        4.6564461581       -0.4487026876
 O       -11.9552029318        5.6401608264       -0.5618513595
 C       -13.9298130590        4.5781071818        0.4826258732
 C       -13.8120788885        5.7023649650        1.5608695609
 C       -12.7293055808        5.3217776065        2.5312444532
 O       -12.2300341154        4.2143955000        2.5709658100
 C       -12.2959406168        6.4228150182        3.6798217291
 C       -13.4652078276        6.8412441402        4.7381252448
 O       -14.5133332503        6.2157681315        4.8124258869
 C       -13.1256067673        8.0130774713        5.7325110416
 C       -14.4551684792        8.5602990919        6.4144128763
 C       -14.4478890084        9.4297144635        7.6136034422
 O       -13.5002528158        9.3036154339        8.3838562085
 C       -15.8043945211       10.2826012534        8.1043988274
 C       -17.0335818831        9.3524544696        7.7161781181
 O       -17.3885427382        9.2301281600        6.5538174316
 C       -17.8282358389        8.6878551934        8.8419968475
 C       -15.5563261222       10.4101528935        9.6025802777
 C       -15.7692842060       11.7550493088        7.4082670283
 C       -10.8774214505        5.8494785163        4.3095222619
 C       -12.0293746888        7.7953434865        2.9692251109
 C       -13.1662227326        2.9048687548       -2.2862031692
 C       -11.7199106709        2.0722616608       -0.2362977428
 C        -4.4752409757        3.7279030004       -1.4595640321
 C        -5.4105819580        5.3752481781       -3.0714227203
 C        -2.7125810380       -1.7786708819       -2.6045157712
 C        -2.4661065405       -1.2642676461       -4.9812678719
 C       -10.5087769961       -1.2511043292       -3.5660330482
 C        -9.5819645685       -2.7616692339       -5.3945840976
 H       -10.1306695771       -0.9261496348       -7.5493977993
 H        -8.3873269347       -1.1361640845       -7.3553436438
 H        -8.9413197816        0.3791464140       -7.5240103539
 H        -7.2630531534       -3.2287508691       -4.7125428579
 H        -7.7331048016       -3.2208604877       -2.9540205229
 H        -5.5127428694       -3.5937166146       -2.5681326680
 H        -5.8017854546       -1.8627722502       -2.3509923083
 H        -5.1250664414        0.8709006525       -5.0768084123
 H        -3.3699603325        0.9108335875       -5.1150808908
 H        -4.2847163373        3.1724618938       -5.2633571077
 H        -3.5768620162        3.0944196060       -3.6043360858
 H        -8.5631190115        4.7471585517       -3.0566251503
 H        -7.6818896910        5.5000995891       -1.6407459498
 H       -10.0544030482        5.4620593278       -0.7765359447
 H        -9.2059709030        3.8638031010       -0.1084128059
 H       -13.8538285992        3.5084174606        0.9433936943
 H       -14.8977789168        4.5215652045       -0.0819761566
 H       -14.6996685860        5.7107132165        2.2290585374
 H       -13.8049338988        6.6141089997        0.8876871910
 H       -12.2977577865        8.6357024260        5.6146956631
 H       -12.7524783247        7.3291121176        6.5344795890
 H       -15.0236853736        7.5794464741        6.4981112744
 H       -15.0340943926        8.9911361163        5.6635012495
 H       -18.2905703083        9.4675439091        9.4714014611
 H       -17.2684860396        7.9139892666        9.4692301058
 H       -18.6515984701        8.1136899006        8.4903440369
 H       -16.3659182225       11.0523514714       10.1783395659
 H       -14.6923669885       10.8928489149        9.9520028460
 H       -15.7035917599        9.4340839459       10.0370022520
 H       -16.6741785714       12.2836391764        7.6166837229
 H       -15.8105868404       11.4630665860        6.3260516602
 H       -14.8184678420       12.3399216258        7.7019670889
 H       -10.8252044302        6.1817303828        5.3832729824
 H       -10.1628663013        6.4941163999        3.7573191116
 H       -10.5804855852        4.7400654637        4.1718785586
 H       -11.2994080441        8.4417129680        3.4321430490
 H       -12.9358836247        8.3535031645        3.0404015896
 H       -11.7042448796        7.8284585501        1.8780254035
 H       -13.5963658507        1.9749472065       -1.9512659650
 H       -12.6218510178        2.5853868137       -3.2493092411
 H       -13.7872984783        3.7980828251       -2.4387076475
 H       -10.8162945196        1.4606265752       -0.4033248790
 H       -12.5104605264        1.3811575475       -0.2722641075
 H       -11.5055010207        2.6097382788        0.6793431283
 H        -4.3727019600        4.5223692791       -0.7203776938
 H        -3.5424996735        3.7218211466       -2.0690261644
 H        -4.3884450933        2.7019884347       -0.9381472642
 H        -5.8337765994        5.4589706600       -4.1439316756
 H        -4.3575981744        5.6449573712       -3.3133010045
 H        -5.9226331446        6.0179916444       -2.3717946266
 H        -2.2278017684       -1.0064188951       -2.1229826846
 H        -1.8362439537       -2.4051942636       -2.6607964493
 H        -3.2109721393       -2.3363886978       -1.8546191910
 H        -1.9830429448       -2.2035348054       -4.9939411271
 H        -1.6241367071       -0.4556789941       -4.8454033540
 H        -2.8613461853       -0.9611364106       -5.9076729795
 H       -10.4170124937       -1.9260457956       -2.6941302139
 H       -11.4696516486       -1.4086322584       -3.9657366261
 H       -10.4495143791       -0.2976118963       -3.0954571307
 H        -9.7927646663       -3.5909183805       -4.7152871023
 H        -8.7606500261       -3.0289936126       -6.0961746080
 H       -10.4691970928       -2.8125982543       -6.0215143699
 Na       -8.7017159793        1.8157993402       -3.4342406558
