117

 C        -8.7710083385       -0.8429154593       -7.1295104054
 C        -9.0489999029       -0.3529425799       -5.6913460653
 O        -9.1431533848        0.7941730819       -5.3952974485
 C        -9.3896567171       -1.6101053687       -4.6955002510
 C        -8.1854657865       -1.5791814427       -3.6567206124
 O        -7.8153346148       -0.4430960778       -3.3229744713
 C        -7.2652141517       -2.6697708597       -3.3007698140
 C        -5.8578871997       -2.3779709034       -2.7993065473
 C        -4.9055139104       -2.3809345487       -4.0250913342
 O        -5.2295407532       -3.0212343997       -5.0638911836
 C        -3.5362955029       -1.5595321984       -3.6939594160
 C        -3.8305953971        0.0175495486       -3.5718191938
 O        -3.8301161979        0.5311226784       -2.4854456729
 C        -3.9876207354        1.0411097073       -4.7156853998
 C        -4.3472111715        2.4331499456       -4.1447316303
 C        -5.7245103673        2.5741173961       -3.5407273947
 O        -6.6201534105        1.9638728441       -4.0364704337
 C        -5.8474764147        3.8996009925       -2.4975217120
 C        -7.1489387515        3.7718819231       -1.6471902747
 O        -7.3926207038        2.7476792191       -1.0384913113
 C        -8.2157629677        4.8267585283       -1.7220430488
 C        -9.5309602066        4.6498986189       -0.8677887489
 C       -10.5864332826        3.9924637559       -1.7232059729
 O       -10.4549136953        3.5776056202       -2.8573396868
 C       -12.0409073390        3.5633194516       -0.9982282361
 C       -12.5589768148        4.5734786154       -0.0596846910
 O       -12.0425399561        5.6733352712       -0.0249278011
 C       -13.9196800910        4.1978552963        0.6088918454
 C       -14.1527733853        5.1686190661        1.7655824030
 C       -12.9137434294        5.2329787169        2.6321156075
 O       -12.2917399985        4.2206862256        2.9067077783
 C       -12.5515726882        6.5355688393        3.3678267553
 C       -13.8192544495        6.9107611386        4.3891474268
 O       -14.8893709165        6.4386110524        4.1379207931
 C       -13.3566572689        7.8999428265        5.5760076105
 C       -14.5361910972        8.6418046934        6.1944969332
 C       -14.2621749414        9.2108829877        7.5892014891
 O       -13.3651790811        8.8422632635        8.2654249736
 C       -15.2846961909       10.4589680008        7.8646424770
 C       -16.7511894236        9.8736868004        7.4939761584
 O       -17.2373300983       10.0763770724        6.4184909705
 C       -17.5532123861        9.2406290529        8.5769164978
 C       -15.1190961148       10.7513547921        9.3095606354
 C       -14.6971478285       11.6495963705        6.9638333896
 C       -11.3168071478        6.5201025607        4.1233471208
 C       -12.4715212607        7.6966140130        2.3877163306
 C       -13.1213010553        3.1520776963       -2.0606113831
 C       -11.5837661377        2.2790950865       -0.1766426325
 C        -4.7323628811        3.6549193850       -1.3979597170
 C        -5.6695288608        5.2090979467       -3.3874050374
 C        -3.0149048532       -1.9160300919       -2.3084063818
 C        -2.5008189854       -1.9421406327       -4.7287738756
 C       -10.6141138853       -1.1233177129       -3.8846192140
 C        -9.6368555315       -2.9515713010       -5.2428979348
 H        -9.5953230091       -1.5179477228       -7.5119160751
 H        -7.9211905126       -1.5003271182       -7.0884908264
 H        -8.5842383533       -0.0068203908       -7.8720554968
 H        -7.0977661531       -3.4828645763       -4.0683432215
 H        -7.7481078511       -3.3371663361       -2.5731290046
 H        -5.4412659768       -3.1586119055       -2.0553247953
 H        -5.6608790059       -1.4468009457       -2.2804876843
 H        -4.7285669918        0.5958404380       -5.4193729696
 H        -3.1449628264        1.0957694152       -5.2910893840
 H        -4.4187117893        3.1893905203       -4.9267142512
 H        -3.5166790628        2.7725621188       -3.5117799480
 H        -8.5141141321        4.8512563690       -2.8024514004
 H        -7.8399616343        5.7194627151       -1.4048244512
 H        -9.8742552122        5.6641256606       -0.6671711601
 H        -9.4938552222        4.1170368986        0.2047031577
 H       -14.1610012565        3.1127974102        0.9471751244
 H       -14.6454006344        4.3303158415       -0.1992075571
 H       -15.0496539901        4.8665529831        2.3631343349
 H       -14.3307378448        6.2295367938        1.2989733768
 H       -12.6079269752        8.5173560435        5.2170058395
 H       -12.8032652481        7.3510519657        6.3091163723
 H       -15.4933681764        8.0322814512        6.0762777060
 H       -14.6629084516        9.4141745715        5.4242808686
 H       -17.2227658526        8.2028101090        8.7277280211
 H       -18.6097987852        9.0357058140        8.3103941308
 H       -17.5000597432        9.7507328608        9.5199597162
 H       -15.7841429117       11.5390752851        9.7277387620
 H       -14.0513666954       11.0217438583        9.4819677143
 H       -15.2845871891        9.9752171642       10.0484621724
 H       -15.1214276318       12.6322449023        7.2851144152
 H       -14.8301899710       11.4870086737        5.9442282029
 H       -13.6520895612       11.4783610596        7.1324033709
 H       -10.6068273398        7.3754822958        4.0731404299
 H       -10.7803998016        5.5867755795        3.7282543915
 H       -11.5623178063        6.4504536987        5.1703638833
 H       -12.6531801921        8.6087733368        2.7883617219
 H       -13.1525397871        7.5302830971        1.5994081703
 H       -11.5054463827        7.8868732900        1.9545356391
 H       -14.1696555586        3.4260683354       -1.7620727534
 H       -12.9851284707        1.9898520602       -2.1599415779
 H       -12.8717397651        3.5837851365       -3.0432938609
 H       -11.6792143465        1.2159523351       -0.5077633170
 H       -11.9260212748        2.4001777354        0.8421230265
 H       -10.4953208227        2.4484968356       -0.1428007594
 H        -4.9226270734        4.5188783597       -0.5898089297
 H        -3.6816533691        3.6398357139       -1.7096930577
 H        -4.7300078580        2.6916636992       -0.8409703398
 H        -6.6516276475        5.7901097173       -3.3212756821
 H        -5.5872313760        4.9825885703       -4.4757109868
 H        -4.7625988606        5.7796016575       -3.1382807648
 H        -1.9839890276       -1.8899113062       -2.1858935624
 H        -3.1853529200       -2.8479774273       -1.7303204403
 H        -3.4238491686       -1.2742472601       -1.5598508624
 H        -1.9313085120       -2.8799254184       -4.4728733978
 H        -1.7425470812       -1.1485557348       -4.9587792425
 H        -3.1094912904       -2.2343455856       -5.6352488663
 H       -10.6155437095       -1.5960505136       -2.9599628065
 H       -11.4525045892       -1.4832009579       -4.3622484236
 H       -10.6565273833       -0.1446534867       -3.5992368093
 H        -9.4042051681       -3.7052578351       -4.5119558948
 H        -8.8501788998       -3.1350151209       -5.9609354416
 H       -10.6052607289       -3.1675164268       -5.6917267635
 Na       -8.7699719507        1.7125709108       -3.0801711133
