117

 C        -8.6092491545       -0.9615983255       -6.9535062778
 C        -8.8525642279       -0.4070997181       -5.5693007904
 O        -8.8759417019        0.7557031498       -5.5061242114
 C        -9.4270058455       -1.5715435912       -4.4310965172
 C        -8.2440040641       -1.5733281084       -3.3869967116
 O        -8.2904533880       -0.5467017716       -2.6371599513
 C        -7.3643389286       -2.7731099417       -3.1210589999
 C        -5.9814343100       -2.4267229855       -2.5956593982
 C        -5.0000360526       -2.2353791538       -3.7587474031
 O        -5.3798514427       -2.6231825642       -4.8864121400
 C        -3.5410524485       -1.6469145626       -3.4999818019
 C        -3.8220956662       -0.0935918502       -3.1947867725
 O        -3.7498338994        0.5655358113       -2.1577949899
 C        -4.1404761293        0.6880737062       -4.5120574671
 C        -4.2708463711        2.2420813029       -4.3740618852
 C        -5.6535640556        2.5179728853       -3.6887861683
 O        -6.5382227362        1.9324459267       -4.2304727853
 C        -5.9088831023        3.6376837460       -2.4669648401
 C        -7.3761339129        3.5393858478       -1.8153608613
 O        -7.7939799271        2.4355498010       -1.5858657969
 C        -8.1043373409        4.9825016730       -1.5543624191
 C        -9.5014534452        4.9409506028       -0.9105284061
 C       -10.4948404942        3.9180076938       -1.6830223235
 O       -10.2376693215        3.4367085493       -2.8015717705
 C       -11.8315898369        3.5287684588       -0.9669094545
 C       -12.5925921184        4.5175110595       -0.1459926906
 O       -12.1746742397        5.5661320013        0.2250928095
 C       -13.9253532787        4.0628910003        0.5160755547
 C       -14.3063406867        4.6641831538        1.8968758870
 C       -12.9541118745        5.0753133266        2.8102471286
 O       -12.0464071366        4.2570192587        2.9434508676
 C       -12.6911125717        6.6635989225        3.2496738816
 C       -13.8982257193        7.1131043347        4.1529281587
 O       -15.0332335104        6.9740300350        3.7665153843
 C       -13.6153699752        7.7201478207        5.5234156627
 C       -14.7765714506        8.5340822962        5.9518209258
 C       -14.3180752212        9.1993749222        7.3103748737
 O       -13.6973869083        8.5857511245        8.1472979730
 C       -14.8682273316       10.5524527873        7.7964151038
 C       -16.5313552038       10.4937573894        7.4798640680
 O       -16.9201735092       10.9789877305        6.4643904105
 C       -17.5069737835        9.7341303073        8.4065126764
 C       -14.3586052631       10.9136311470        9.2451736034
 C       -14.4535110088       11.8614970096        6.7865926865
 C       -11.2625562011        6.5793212396        3.8805995540
 C       -12.6781678796        7.6720111005        2.1655247056
 C       -12.8186217289        3.1196428638       -2.0557570793
 C       -11.4832598157        2.3031369647        0.1096279593
 C        -4.8352885531        3.6889347254       -1.4257276105
 C        -5.7089391396        5.0239358415       -3.3735501242
 C        -2.9335002779       -2.3120055846       -2.3169794481
 C        -2.6271186152       -1.8886651094       -4.7569913956
 C       -10.8199908086       -1.1543353076       -3.9395947809
 C        -9.4635868340       -3.0334968576       -5.1021966646
 H        -9.5675218173       -1.4244397599       -7.3957055474
 H        -7.8851138548       -1.7510477801       -7.0085412073
 H        -8.3775505656       -0.0000370708       -7.5321747785
 H        -7.4473468618       -3.5428224874       -3.8109348360
 H        -7.8218081644       -3.3115804087       -2.2273306769
 H        -5.4803006480       -3.1640940841       -1.7991960853
 H        -6.0896625283       -1.5306157733       -2.0252616709
 H        -4.9536094088        0.3439439167       -5.2261224071
 H        -3.3210534470        0.4102223337       -5.2307287077
 H        -4.1822456205        2.6105726660       -5.3698443452
 H        -3.4704438451        2.6598986121       -3.7847408628
 H        -8.1718221882        5.4591386066       -2.6005623579
 H        -7.5277589922        5.5835274323       -0.9927234440
 H        -9.8891764823        5.8838635208       -0.7115584827
 H        -9.4286790003        4.4705851806        0.0724335171
 H       -13.8093837123        3.0408562219        0.7661916514
 H       -14.7135550268        4.0443665596       -0.1702466546
 H       -14.9877071674        4.0533895194        2.4487954438
 H       -14.8956009171        5.5602166914        1.6066640727
 H       -12.6363115696        8.2672076180        5.5828826548
 H       -13.4726648517        6.9830630312        6.3980213195
 H       -15.6846542867        7.8129004328        6.1623337020
 H       -15.1208423532        9.1610544860        5.1752676039
 H       -18.0296234643        8.9996812588        7.7333809665
 H       -18.4730173364       10.1202693216        8.8084020371
 H       -17.0033952515        9.2654350466        9.2092809505
 H       -15.1445977926       11.5564314963        9.7369203206
 H       -13.3867943248       11.2967832869        9.2990576599
 H       -14.2858939572       10.0781224319        9.8848852521
 H       -15.0289959603       12.7284193983        7.0461957092
 H       -14.5056687729       11.5218038043        5.7716947761
 H       -13.3643589158       11.9300545738        6.9818349105
 H       -11.1655946839        7.4370258509        4.4924312958
 H       -10.5273491122        6.7474554596        3.1406848423
 H       -11.0620408167        5.7058495074        4.4801471237
 H       -12.3793573012        8.6763706320        2.5506638480
 H       -13.6979431426        7.7307720055        1.7323262391
 H       -11.9257721411        7.4940872224        1.2834126138
 H       -12.9256411523        3.8223685726       -2.7957819445
 H       -13.7600108338        2.8954240744       -1.5105561490
 H       -12.6186975784        2.1867780195       -2.4986541934
 H       -12.2947501015        1.5774106726        0.0247654395
 H       -11.2595937201        2.6475578181        1.1176306577
 H       -10.5898438053        1.6849339848       -0.1664885075
 H        -4.9821801563        4.4781224152       -0.5975994627
 H        -3.9363679075        4.0026146070       -1.8741363648
 H        -4.5651197806        2.7965886317       -0.9019424982
 H        -5.0599331135        5.7055222393       -2.8225768276
 H        -6.5837446545        5.4750055501       -3.7589274240
 H        -5.2706995981        4.7008743703       -4.2434711557
 H        -2.2784925421       -1.7807964021       -1.6760114018
 H        -2.4003082827       -3.2770241720       -2.4867303691
 H        -3.5289999962       -2.7239787498       -1.4903849690
 H        -2.8462891798       -2.8083718030       -5.1998000573
 H        -1.5974534987       -1.8513652425       -4.3600022754
 H        -2.8249495651       -1.2867325382       -5.5797589208
 H       -11.5895523086       -1.9992144835       -3.7136146638
 H       -11.3258598726       -0.3713455344       -4.6287377101
 H       -10.7024023112       -0.6259804123       -2.9003007155
 H        -9.6502145006       -3.8066204115       -4.3436965356
 H        -8.5247569372       -3.3923911656       -5.5750338649
 H       -10.2585358221       -3.0921913325       -5.8314024436
 Na       -8.9296640079        1.6846549729       -3.4876636614
