117

 C        -8.1219898608       -1.5951914219       -6.7268660971
 C        -8.9069173007       -0.7408916646       -5.7151900486
 O        -9.0092114388        0.4299734566       -5.6714604906
 C        -9.4033026358       -1.7305668474       -4.6172509718
 C        -8.3516129331       -1.5766091877       -3.4203720964
 O        -8.4847409522       -0.5828408410       -2.6347444160
 C        -7.5133705149       -2.7110575633       -2.8001607555
 C        -6.1542599012       -2.2705440406       -2.3086297861
 C        -5.2220155986       -2.0172294229       -3.5684053342
 O        -5.7713817212       -1.8132563817       -4.7024226628
 C        -3.7643584195       -1.8041254328       -3.2858662523
 C        -3.8403526252       -0.1438069941       -3.0996768974
 O        -3.7943254775        0.3279305829       -2.0155492918
 C        -3.8907638799        0.7523975778       -4.3842518886
 C        -4.3281437416        2.1926034501       -4.0124323702
 C        -5.7800900445        2.4373840623       -3.6614547682
 O        -6.6744595496        1.8075631954       -4.1691876623
 C        -5.9914557082        3.7553268157       -2.5297663438
 C        -7.4244391324        3.6811192858       -2.0851357003
 O        -7.8712433481        2.5661282758       -1.6418380786
 C        -8.1275687506        4.9626487884       -1.5305973685
 C        -9.2958862179        4.4751189350       -0.6343049085
 C       -10.3867576365        3.6084180291       -1.5429438164
 O       -10.3599289562        3.5436680736       -2.7663132224
 C       -11.6291450596        3.0038223176       -0.9466675422
 C       -12.3853598705        4.2171523436       -0.3421718811
 O       -12.0163730557        5.3870728864       -0.4549601380
 C       -13.6912138302        3.9138229975        0.3736854141
 C       -14.0315077413        4.9506829851        1.5846717697
 C       -12.9422542925        5.3443274204        2.4791361906
 O       -12.1748614706        4.4427167563        2.7842297397
 C       -12.6822809875        6.7733250887        3.1578828024
 C       -13.9431503334        7.0738852384        4.0611181802
 O       -14.9868440078        7.1782901034        3.4691993218
 C       -13.9160818491        7.5207206230        5.5938893720
 C       -14.8742298237        8.7246395038        5.8923197357
 C       -14.5160333576        9.2177337277        7.3710350157
 O       -14.0152499059        8.5187746073        8.1701751624
 C       -14.6223412481       10.8154196756        7.5482998096
 C       -16.3188943678       11.2210793754        7.3953226980
 O       -16.6727893758       12.1464073387        6.7517695571
 C       -17.2863423779       10.4078019661        8.4846562603
 C       -14.1373353946       11.1492819243        8.9843782147
 C       -13.7311771852       11.6805480368        6.6244708490
 C       -11.3055623912        6.9167278835        3.7586220012
 C       -12.6216808099        7.6876808703        1.8450172311
 C       -12.6114629345        2.3102127038       -1.9682110949
 C       -11.1788465063        2.0586385859        0.1476613263
 C        -5.1533899436        3.6410000694       -1.2079544892
 C        -5.4840512454        5.0915048217       -3.3513850156
 C        -3.1346866161       -2.5031677694       -2.0823927694
 C        -2.9289327092       -2.2413559069       -4.5197866794
 C       -10.8203307292       -1.0789686049       -4.1728411000
 C        -9.7364479560       -3.2164059212       -4.7999437660
 H        -8.6012166721       -2.4734959591       -7.0208278324
 H        -7.3144399150       -1.9949781738       -6.1716932375
 H        -7.6964283189       -1.0085040245       -7.5333127407
 H        -7.3233870685       -3.6096583997       -3.4346235877
 H        -8.1406411045       -3.1189778473       -2.0192290887
 H        -5.5924742312       -3.0549896292       -1.6620975959
 H        -6.1062063616       -1.3818109079       -1.7649307610
 H        -4.7040048519        0.2589854018       -5.0428885105
 H        -3.0094849534        0.6463683808       -5.0588708653
 H        -4.3323248646        2.8032840669       -4.9332800283
 H        -3.5385096043        2.5150235662       -3.3140819004
 H        -8.6555097786        5.5576813805       -2.3763646545
 H        -7.4130373721        5.6285995116       -1.1730127351
 H        -9.9026892496        5.1279977347       -0.2274237298
 H        -8.9945482567        3.7750345368        0.1460247029
 H       -13.7430745953        2.8928580872        0.7898919898
 H       -14.5365938295        4.0038506137       -0.2618229533
 H       -14.6195299007        4.3495890422        2.1775483952
 H       -14.7075679752        5.7748978916        1.3048679432
 H       -12.9511750454        8.0155672471        5.8554189714
 H       -14.0364624053        6.5919383569        6.2676712372
 H       -15.9076083074        8.5936597363        5.5520363886
 H       -14.5407864737        9.5874411886        5.2781993473
 H       -18.3189260244       10.5487105284        8.2609330328
 H       -17.2460449995       10.5958946591        9.5611987334
 H       -16.9200838278        9.4219876066        8.4745548666
 H       -14.1637633937       12.2294806610        9.0157776335
 H       -13.0658795568       10.8666087824        9.1545499301
 H       -14.7841370653       10.9254346299        9.7751862768
 H       -13.3599848174       12.5777524056        7.2490130989
 H       -14.3849716772       11.9088687309        5.8214979725
 H       -12.8241536832       11.1407917341        6.2064418943
 H       -10.7629815559        7.7367217522        3.2630078192
 H       -10.6806791384        5.9816026039        3.6763285364
 H       -11.3147937844        6.9589836885        4.7988945843
 H       -12.6792814707        8.7950578253        1.9898544003
 H       -13.4174016274        7.4188140477        0.9943620607
 H       -11.7385986211        7.2420733021        1.3048153033
 H       -12.0738271201        2.1525309726       -2.8720158645
 H       -13.5853145524        2.8310028321       -2.2970635428
 H       -12.9775735264        1.3870446659       -1.6463202795
 H       -11.9931056865        1.5165234481        0.6725675062
 H       -10.5177815831        2.5304127822        0.8651799212
 H       -10.4717563857        1.2911973203       -0.2083445286
 H        -5.6754029114        4.2392614472       -0.3802092343
 H        -4.2411692600        4.0685305969       -1.3264278423
 H        -5.0084502690        2.7691597496       -0.7052530219
 H        -4.7767036990        4.6913722652       -4.1371408361
 H        -5.2527077349        5.9577765615       -2.7559404139
 H        -6.3540948011        5.4776836712       -3.8551383388
 H        -2.0938674458       -2.6391430406       -2.1107032494
 H        -3.4858726724       -3.5268322012       -1.7641586987
 H        -3.0681558690       -2.0331567970       -1.1251260500
 H        -2.2441829904       -3.0395196378       -4.2210610741
 H        -2.3709637166       -1.4415781327       -4.8954686593
 H        -3.5735661501       -2.6225397907       -5.3163543307
 H       -11.0741011442       -1.3014158411       -3.1514320262
 H       -11.6517869386       -1.5901036331       -4.7575566124
 H       -11.0120394189       -0.0694437469       -4.6288696408
 H       -10.3553608310       -3.7384487570       -4.0606618985
 H        -8.7770999830       -3.7339520273       -4.9360317123
 H       -10.2236013178       -3.2891240837       -5.7718797515
 Na       -9.1181984661        1.4885705990       -3.3399032183
