117

 C        -7.9564061483       -1.6618170438       -6.6627660842
 C        -8.7561837667       -0.9776772467       -5.5440378843
 O        -8.8854677223        0.2453009716       -5.6129439316
 C        -9.5608487047       -1.8423554119       -4.4710218173
 C        -8.6045574981       -1.5931838098       -3.2456185773
 O        -8.3287652725       -0.4494835582       -2.7926833055
 C        -7.7404864562       -2.7990328383       -2.8149779180
 C        -6.3581041486       -2.3222964264       -2.3539207791
 C        -5.3535758079       -1.8436074182       -3.4565025721
 O        -5.8187024872       -1.7767073167       -4.5736336162
 C        -3.7806448571       -1.7075554683       -3.2705690123
 C        -3.7579423898       -0.1196371201       -3.1273175960
 O        -3.7998006403        0.3196276033       -2.0542295035
 C        -3.8343241312        0.7517378238       -4.3803163042
 C        -4.2059972446        2.2223834389       -4.0620034266
 C        -5.6687750618        2.5470508931       -3.5069581901
 O        -6.6226008334        1.9250907828       -3.9334192214
 C        -5.8665541642        3.6559750411       -2.4612549550
 C        -7.2348806279        3.4950833670       -1.7882400648
 O        -7.8013903801        2.3811767989       -1.7231389761
 C        -8.1787145683        4.7522223288       -1.6331333343
 C        -9.4513222520        4.5815743128       -0.8970816402
 C       -10.4169198510        3.6837147102       -1.6464791910
 O       -10.2987575184        3.5051086363       -2.8160085724
 C       -11.6121002104        2.9488990195       -0.7903555264
 C       -12.4173735122        4.1780260228       -0.2860108672
 O       -12.0730553953        5.2958134148       -0.6358008926
 C       -13.7279913767        3.8346226271        0.5176558026
 C       -14.1193599997        4.9801328967        1.3799109511
 C       -12.8335475853        5.2388890621        2.4460067057
 O       -12.0757108084        4.3713289725        2.7474787060
 C       -12.6198492870        6.7822918435        2.9996870597
 C       -13.9446826808        7.3042029107        3.8782237823
 O       -15.0702189126        7.1872840042        3.4206805123
 C       -13.8790478454        7.5536275676        5.4918822403
 C       -14.7275408318        8.7493540915        5.8942009800
 C       -14.4869772304        9.3462490247        7.3051691244
 O       -14.2201826630        8.5483268923        8.2033472560
 C       -14.6487162461       10.9610650521        7.6309031519
 C       -16.0864590687       11.3945657237        7.5732262260
 O       -16.5381988190       12.2914222338        6.7746981048
 C       -17.1864162385       10.6813931636        8.2394843502
 C       -13.8888992405       10.9794154194        8.9367966644
 C       -13.8591973888       11.6624082393        6.4550198448
 C       -11.3405146581        6.9332213496        3.8515037238
 C       -12.6954836907        7.8901681257        1.8315277265
 C       -12.5223165061        2.2501430288       -1.7979300639
 C       -11.1957139983        2.0304514847        0.3563071868
 C        -4.9742016042        3.6353849247       -1.2718240874
 C        -5.7442683187        5.0026897647       -3.2340506587
 C        -3.4371611926       -2.4713264687       -1.9960227844
 C        -3.0302285659       -2.1990530067       -4.5552273073
 C       -10.9189043583       -1.1489231718       -4.0758124644
 C        -9.7462413130       -3.2886390301       -4.8556921736
 H        -8.3735558587       -2.6279901184       -7.0503230412
 H        -6.9270699358       -2.0394675762       -6.1865632992
 H        -7.6482879067       -0.9140010501       -7.3828825608
 H        -7.6332477769       -3.6643598251       -3.6462275330
 H        -8.1952128782       -3.3314991693       -2.0150637452
 H        -5.7784050695       -2.9970896816       -1.7771365784
 H        -6.5374177473       -1.3393716411       -1.6865991849
 H        -4.5469836270        0.1508261703       -5.0917553860
 H        -2.9075972848        0.6682127896       -4.9410498586
 H        -4.1400987439        2.8357349254       -4.9205647938
 H        -3.3930221072        2.3956217088       -3.3802962928
 H        -8.4334960728        5.0887270499       -2.5457065162
 H        -7.6048716847        5.5957858560       -1.2010280995
 H       -10.0371019652        5.6330316967       -0.7265866972
 H        -9.4365736444        4.0810825959        0.0581945161
 H       -13.4304879331        3.0635926074        1.2577689616
 H       -14.5094913733        3.4976856955       -0.0616343020
 H       -15.1812340151        4.9453450146        1.6531007553
 H       -13.9852869153        5.9110426972        0.7882694090
 H       -12.8857508828        7.6730159362        5.9754952724
 H       -14.3289349719        6.5671232661        5.8032193547
 H       -15.7380125410        8.2788181356        5.9661815613
 H       -14.9871992369        9.6483265948        5.0931727957
 H       -18.0672515913       11.1329106086        7.8329259094
 H       -17.3097890629       10.5976147367        9.3224931618
 H       -17.0270476919        9.5781806986        7.9719805694
 H       -13.9714352360       11.9118025231        9.3422457282
 H       -12.7787779708       10.8047531122        8.8245701333
 H       -14.4367329528       10.3803189458        9.6474950651
 H       -13.1822103280       12.4615456676        6.8803491889
 H       -14.4261598765       11.8940599855        5.5562453800
 H       -13.2164043563       10.8389729215        6.2244066500
 H       -10.6556348541        7.5260372486        3.2974960550
 H       -10.8807336781        5.9838001188        4.0417566760
 H       -11.4214741360        7.2618306911        4.8328882338
 H       -12.3474400435        8.8496215187        2.3184026501
 H       -13.6818424461        8.1503879009        1.3410083197
 H       -12.1293497018        7.5415585663        0.9744481266
 H       -12.0058457035        1.7874956813       -2.6259419642
 H       -13.0345326579        3.0183947523       -2.3251500307
 H       -13.2753594948        1.6028130105       -1.4603484577
 H       -11.8351351038        1.2121362513        0.7801267633
 H       -10.7711713247        2.5935669504        1.2006055209
 H       -10.2473696928        1.5960158939        0.0435592124
 H        -5.3702228871        4.3194961024       -0.5672626668
 H        -3.8774043554        3.9183002720       -1.4340362029
 H        -4.9263188316        2.7522794770       -0.5797132676
 H        -5.3036988823        4.7851455828       -4.1444394554
 H        -5.2136201352        5.6675015609       -2.6417734515
 H        -6.6268236212        5.6123715822       -3.4016497658
 H        -2.4123807920       -2.8109499800       -1.6751434154
 H        -3.9685976404       -3.3976321274       -1.7893055787
 H        -3.5844955304       -1.9229190318       -1.0641247017
 H        -2.2266665394       -2.9184198178       -4.2883180463
 H        -2.6348974385       -1.3836072988       -5.0523190879
 H        -3.7608863149       -2.6001860960       -5.3016084098
 H       -11.1152702123       -1.1650067032       -2.9405999624
 H       -11.7793420922       -1.8506373665       -4.4182423328
 H       -11.2303797763       -0.3121415974       -4.7801896370
 H       -10.0891770836       -4.0170146400       -4.1332148810
 H        -8.7727696270       -3.5570050484       -5.2869452125
 H       -10.4259879377       -3.3412613640       -5.7538662261
 Na       -9.1526010838        1.5174670387       -3.5468171701
