117

 C        -8.1356606539       -1.8655870503       -6.6576599043
 C        -8.8755195619       -1.0493519748       -5.5994274079
 O        -8.7256557143        0.1516257340       -5.5078025526
 C        -9.5781989293       -1.9343634066       -4.5203367394
 C        -8.5217365621       -1.6868956288       -3.3244315491
 O        -8.5549591524       -0.6088175819       -2.7919682849
 C        -7.7894000719       -2.8723613157       -2.6835592676
 C        -6.4021009489       -2.3648356138       -2.2764928603
 C        -5.5634210563       -1.7820595428       -3.4142753124
 O        -6.1744150343       -1.7046500892       -4.4648290022
 C        -4.1011209744       -1.6026964398       -3.1323768737
 C        -3.9980110286       -0.0552833246       -2.9884066146
 O        -3.7050957760        0.4349879209       -1.9046331108
 C        -3.9279038454        0.8141800896       -4.2862224441
 C        -4.1151796003        2.3043808479       -3.9582906611
 C        -5.5384486198        2.5056776017       -3.4816858486
 O        -6.4083934844        1.7652836667       -3.9333987449
 C        -5.7699203777        3.5362164501       -2.3306625618
 C        -7.1936656328        3.3592459140       -1.6121621978
 O        -7.7149609798        2.2885450211       -1.4695706013
 C        -8.0457738645        4.6627996887       -1.6222527149
 C        -9.5149085542        4.5311493084       -1.0371438892
 C       -10.5624638382        3.4184531247       -1.6432096229
 O       -10.2682162748        3.0791851719       -2.8156068516
 C       -11.6907073558        2.9355618288       -0.8281535948
 C       -12.6592365743        4.1165452826       -0.3545081706
 O       -12.4829828602        5.2072935591       -0.8576970220
 C       -13.7371665474        3.9039994402        0.7509188544
 C       -14.0825707157        5.2704688114        1.3490455299
 C       -12.9610188667        5.5155484849        2.4258817457
 O       -12.0561476481        4.7279566371        2.7590719986
 C       -12.7014658523        6.9438801586        3.0405658012
 C       -14.0441037487        7.2733676619        3.8801095794
 O       -15.0845889173        7.2384689942        3.2826263014
 C       -13.8780662375        7.6919043464        5.3926490630
 C       -14.8463774278        8.8536760374        5.7357312853
 C       -14.6233175376        9.2401312425        7.1426221205
 O       -14.6873401623        8.4339861005        8.0010145718
 C       -14.4284078867       10.8188025387        7.3601342551
 C       -15.8022300315       11.5531978925        7.4378656724
 O       -16.0379366822       12.6149432115        7.0424828378
 C       -16.9093192382       10.8763811593        8.1975848709
 C       -13.8463095117       11.2392673214        8.6050287056
 C       -13.5911821737       11.5803486396        6.2957425550
 C       -11.3102304017        6.8437575632        3.8002927379
 C       -12.6634668180        8.0390837351        1.9008316349
 C       -12.4102516112        1.8123968280       -1.6746254985
 C       -10.9255832192        2.2183086256        0.4079324306
 C        -4.6948994272        3.5445975933       -1.3024276459
 C        -5.5813073743        4.9007778016       -3.1068207601
 C        -3.4748255812       -2.2322945800       -1.8337327962
 C        -3.3067820651       -2.2270591792       -4.3489659398
 C       -10.9302088723       -1.2152657471       -4.1113521583
 C        -9.8661705484       -3.4775453751       -4.8156987042
 H        -8.9305840478       -2.4410329164       -7.1119235623
 H        -7.4506963405       -2.5883424929       -6.3401922573
 H        -7.5829622390       -1.1685693517       -7.3494923585
 H        -7.8285833315       -3.7894370581       -3.1692502467
 H        -8.3111309518       -3.0188986329       -1.6820896111
 H        -5.6722151874       -3.1264435409       -1.8518302191
 H        -6.6312959975       -1.6559545034       -1.6056595450
 H        -4.6155408708        0.5996622074       -5.0397107086
 H        -2.9141488642        0.5721252118       -4.6563349104
 H        -4.0559368142        2.7787881688       -4.9874406392
 H        -3.2986796869        2.6218870480       -3.2953819802
 H        -8.1895517461        4.8080663879       -2.8385059804
 H        -7.5918725755        5.6442524581       -1.3813661810
 H        -9.9588721282        5.4227544491       -1.0921862567
 H        -9.5086489993        4.2941327222        0.0815144300
 H       -13.2282200835        3.3072102036        1.5551716782
 H       -14.5674162013        3.3177466776        0.1696971506
 H       -14.9331199644        5.3244626452        2.0487394348
 H       -14.2153573338        6.1160504894        0.6530437952
 H       -12.8938449756        8.1162674329        5.5635849546
 H       -14.0359002542        6.8205617922        5.9806079585
 H       -15.8550533392        8.5216673961        5.5038786117
 H       -14.7771949905        9.6864729981        5.1699867455
 H       -17.5892394768       11.7564240855        8.3395534062
 H       -16.6136080987       10.5170168492        9.2154851739
 H       -17.3907789086       10.0110212693        7.7716727022
 H       -13.9741761072       12.2288399949        9.1352398926
 H       -12.7987942334       11.1323751653        8.3846156508
 H       -14.1569139673       10.4860670051        9.3185123296
 H       -13.7196841157       12.6199500506        6.5436907110
 H       -13.9857321511       11.4055157563        5.3335934294
 H       -12.4983173519       11.3860644815        6.3451577482
 H       -10.5529549923        6.3490665871        3.1649015714
 H       -11.2757253100        6.4168583433        4.8314066058
 H       -10.8822345896        7.8409795317        3.9524824253
 H       -12.1824064226        8.8687712939        2.2525426705
 H       -13.6851954106        8.3859567504        1.7652006578
 H       -12.2247514916        7.6599924085        0.9844443010
 H       -12.0505568632        0.7903217042       -1.6452194329
 H       -12.2509341065        1.9372651544       -2.8210410878
 H       -13.5074335471        1.7328554482       -1.4894734003
 H       -11.4864868182        1.3738873921        0.7417485544
 H       -10.9138829739        2.8168134393        1.3213564148
 H        -9.8758609588        1.9106671750        0.2347500013
 H        -4.6465818604        4.4434839887       -0.5707391161
 H        -3.8252253611        3.6125009086       -1.8564893512
 H        -4.5063559135        2.7664585516       -0.6153300991
 H        -4.5855619141        4.8249136043       -3.7097404856
 H        -5.4613813261        5.7733832569       -2.4186403812
 H        -6.3040745070        5.1496054237       -3.8751959482
 H        -2.5757740512       -1.8325909216       -1.5693370612
 H        -3.1745820207       -3.2687099391       -1.8383462880
 H        -3.9680201380       -2.2082574818       -0.8858536352
 H        -2.5665773551       -2.9220852265       -3.9064884567
 H        -2.8015445882       -1.4713326626       -5.0073214102
 H        -4.0318281412       -2.6300430664       -5.0660924397
 H       -10.8251450285       -0.7563077169       -3.1929809390
 H       -11.7252815628       -1.8872172155       -3.9557212440
 H       -11.2547235312       -0.5848112005       -4.8833012626
 H       -10.2650357015       -3.6888952007       -3.8159061315
 H        -9.0843253829       -4.1600794733       -5.1667646083
 H       -10.7074614866       -3.6428691653       -5.4496773616
 Na       -8.9384021915        1.6528532147       -3.9366049636
