117

 C        -8.6260316628       -2.0759076333       -7.0214453610
 C        -8.8873111488       -1.3101212003       -5.7778009846
 O        -8.8122058161       -0.0822944055       -5.8539180362
 C        -9.6050596228       -1.8604830485       -4.4302351054
 C        -8.6808231946       -1.6554453312       -3.1356620456
 O        -8.5844933203       -0.5484495263       -2.5264865604
 C        -7.9775708524       -2.8882208750       -2.5335962538
 C        -6.5584263634       -2.5582939314       -2.0309756191
 C        -5.7080647177       -1.8773762853       -3.0329960518
 O        -6.1825999193       -1.6023934644       -4.1138993985
 C        -4.0468721793       -1.6025434941       -2.9718658010
 C        -3.9484811151       -0.0834882748       -3.0167972875
 O        -3.7921616295        0.5856801676       -2.0054191398
 C        -3.8654869645        0.6856450081       -4.3026856527
 C        -4.1296243278        2.2751053060       -4.0921423712
 C        -5.4904049486        2.4502497994       -3.3836025292
 O        -6.3938817522        1.8633888477       -3.8915371754
 C        -5.7844723717        3.6318568668       -2.4086122457
 C        -7.2409627302        3.5101410321       -1.7857515887
 O        -7.4595123980        2.4493240765       -1.2035880397
 C        -8.2263919355        4.6519079260       -1.8075295089
 C        -9.4792643443        4.2467583830       -1.0648954953
 C       -10.3668685597        3.2675285406       -1.7776791338
 O       -10.2144521362        2.6838087200       -2.8279536846
 C       -11.6703122720        2.8108491433       -0.6975393886
 C       -12.6344117502        4.0826033652       -0.4732081578
 O       -12.6542264900        5.0146511651       -1.2198434798
 C       -13.7606023072        3.9925792173        0.5049705546
 C       -14.0461854538        5.1642932627        1.3979255429
 C       -12.7261174841        5.6077326394        2.3348880343
 O       -12.0461359478        4.6961284085        2.6940471265
 C       -12.6170465458        7.0592678760        2.9156746704
 C       -14.0046311123        7.2570530422        3.8587760269
 O       -15.0579265104        7.1756906034        3.2616320535
 C       -13.9051354151        7.8868857630        5.3255366835
 C       -14.9935193258        8.9153439117        5.5854897744
 C       -14.8235921052        9.5795391099        6.9818087139
 O       -14.9736483785        8.7509646071        7.9105249681
 C       -14.3261316047       10.9078861475        7.2054386695
 C       -15.5883362730       11.7424271117        7.4753278629
 O       -15.7977002225       12.8853739386        7.0691339172
 C       -16.6767176378       11.0468236437        8.1920336905
 C       -13.6137041810       10.9715243590        8.6415114557
 C       -13.3817786290       11.3810109767        6.1180185049
 C       -11.3562084222        7.2216398478        3.8377972917
 C       -12.5476642292        8.1319853175        1.7818967373
 C       -12.5012492771        1.6478080980       -1.3676128077
 C       -11.1434832478        2.4290436582        0.7032201118
 C        -4.9868767543        3.2919804039       -1.0947172433
 C        -5.4121386416        4.9109125788       -3.0783363964
 C        -3.5649760882       -2.1639338119       -1.6668988491
 C        -3.3734037880       -2.1798430674       -4.3000893559
 C       -10.9716707928       -1.1169455718       -4.3543132327
 C        -9.8659159343       -3.4559892352       -4.8146981409
 H        -9.5072800073       -2.0343142989       -7.6689969941
 H        -8.2525161564       -3.0677464931       -6.8891184517
 H        -7.8049368373       -1.5676500374       -7.4883661170
 H        -7.9873310653       -3.7946362820       -3.2146707547
 H        -8.4622238250       -3.1576676074       -1.6127021427
 H        -6.0824177950       -3.3617761664       -1.5517262830
 H        -6.7447367689       -1.6211833674       -1.2869351567
 H        -4.4514314067        0.3417132216       -5.2264774875
 H        -2.7649537328        0.5421272430       -4.4551445118
 H        -3.9990509524        2.6226085889       -5.0943167619
 H        -3.3381645953        2.6069156276       -3.4149619870
 H        -8.3594352371        5.0428998902       -2.7012788192
 H        -7.8762302992        5.5720477345       -1.2674711220
 H       -10.0952185128        5.2576774205       -0.8557588716
 H        -9.2547752654        3.8422160580       -0.1156994694
 H       -13.4659372315        3.1555412716        1.1072687326
 H       -14.5737246489        3.7813333019       -0.1219146992
 H       -14.8263942534        4.8902606247        2.1374548491
 H       -14.4225121318        5.9801275839        0.8273773549
 H       -13.0400403831        8.5939062599        5.3415696893
 H       -13.7837423706        7.1328500992        6.1630754837
 H       -16.0284458395        8.4106371239        5.6484805338
 H       -15.1531047305        9.6256407260        4.7013069271
 H       -17.3560600395       11.7160790379        8.6892729101
 H       -16.4727525427       10.2369527861        8.8214286341
 H       -17.3220138250       10.7031107617        7.3344187548
 H       -13.3340535136       12.0084449818        8.7749770471
 H       -12.6859373818       10.4065038782        8.7761579801
 H       -14.3576706585       10.7449260173        9.4324155365
 H       -13.4563736808       12.4389346597        5.7772345063
 H       -13.5222195623       10.6818686714        5.1957054429
 H       -12.4106466921       11.2946708223        6.6071421743
 H       -10.5700120340        6.4831986924        3.6954509287
 H       -11.5818768766        7.1513968563        4.8729039015
 H       -10.8133307979        8.2184735009        3.6838918999
 H       -12.8042805319        9.2100745104        2.2068946313
 H       -13.2558633305        7.9715419402        0.9358277920
 H       -11.4263135691        8.1189191995        1.5200785521
 H       -12.1325792041        0.6537438806       -1.0639263254
 H       -12.4426795185        1.5135084953       -2.3768808581
 H       -13.5205629225        1.5731620427       -1.0058956714
 H       -11.8724115208        2.1378210357        1.4682761250
 H       -10.7922295377        3.3020073276        1.2688120768
 H       -10.4494890875        1.6191059722        0.6943778520
 H        -5.4294018332        3.5593011550       -0.2413458267
 H        -3.9111263925        3.4759006442       -0.9252557809
 H        -5.0607370665        2.1918626320       -1.0168613840
 H        -4.4722328938        5.3118417099       -2.7006971438
 H        -6.0999484292        5.7946459753       -2.9591442957
 H        -5.1921967559        4.7028155319       -4.1822160793
 H        -2.4736578072       -2.2394337745       -1.3837679933
 H        -3.7699405559       -3.1877297882       -1.4949443414
 H        -4.1125822117       -1.7517854699       -0.8183401640
 H        -2.9210063643       -3.0864153330       -4.0742991450
 H        -2.5680708725       -1.5142499456       -4.6418418403
 H        -4.0943521562       -2.1154259483       -5.0696781930
 H       -10.7160657981        0.0044143792       -4.2029648937
 H       -11.4784966938       -1.4758310296       -3.4488019040
 H       -11.5837860034       -1.1321426876       -5.2577139257
 H       -10.4753596901       -3.9855583256       -4.1123634346
 H        -8.9116992756       -3.9471434995       -4.9433275557
 H       -10.3818288637       -3.4869865276       -5.7955484011
 Na       -8.4667164495        1.5412454608       -3.7607101200
