117

 C        -8.8426110385       -2.1684073658       -7.0733805401
 C        -9.0062029867       -1.2339337988       -5.8431261250
 O        -8.6932996872       -0.0042438329       -5.7848356583
 C        -9.5144468266       -1.8303952893       -4.5649919179
 C        -8.6346353921       -1.6417936479       -3.2005053916
 O        -8.6655982979       -0.6183147787       -2.6568807509
 C        -7.9675227693       -2.7762190080       -2.4790802264
 C        -6.5499972461       -2.4898366117       -1.8421208987
 C        -5.7257824886       -1.8988839619       -3.0826261682
 O        -6.2414989340       -1.5189777597       -4.0705020659
 C        -4.2606974091       -1.7033728671       -2.8312876205
 C        -3.9682471698       -0.0321753970       -2.9872026621
 O        -3.8684480192        0.5713723751       -1.9120895311
 C        -3.8464717478        0.7995490677       -4.3847932882
 C        -4.0296316314        2.2997298005       -4.0799278739
 C        -5.4480409533        2.5321401778       -3.5102217198
 O        -6.3544495078        1.8260021973       -3.9220987299
 C        -5.7296122217        3.6123238751       -2.3939264604
 C        -7.2115584945        3.4688192699       -1.7964867467
 O        -7.5846237397        2.4837539982       -1.2563262059
 C        -8.2724164986        4.5798056071       -2.0933677901
 C        -9.5328592283        4.2328200479       -1.0590235309
 C       -10.4295333759        3.0038880605       -1.5174125471
 O       -10.2311705772        2.5972577008       -2.6832194805
 C       -11.6224068310        2.7804697233       -0.6627372418
 C       -12.6818329961        4.0618864255       -0.6646340624
 O       -12.5736468518        4.9639777817       -1.4531342132
 C       -13.8842957902        3.9881471862        0.5244053913
 C       -13.8146359655        5.2654253536        1.3735079569
 C       -12.7028899941        5.5860363114        2.3834226282
 O       -11.8345934722        4.7771633542        2.6880634851
 C       -12.6937482348        7.0140345998        2.9830579358
 C       -13.9930725976        7.4651682519        3.6574989143
 O       -15.0428170542        7.0754024428        3.2326202266
 C       -13.9244089408        8.1045826900        4.9929435784
 C       -15.1309629060        8.8987241658        5.5039389574
 C       -14.7879517884        9.4235766410        7.0792035380
 O       -15.1536054317        8.8189076063        8.0320058864
 C       -14.1908306744       10.9619641925        7.2179451406
 C       -15.5646527589       11.9641736243        7.4030384277
 O       -15.5828453719       13.0291615156        6.9860263968
 C       -16.8295339380       11.2719837369        8.1629449245
 C       -13.3798926118       10.7068905502        8.5400018359
 C       -13.2942140138       11.5275734325        6.0787165269
 C       -11.2823296318        7.1368996708        3.7110651242
 C       -12.6374884547        8.0182435961        1.7611740536
 C       -12.5160241790        1.6853786809       -1.1721978647
 C       -11.2283633161        2.4645196677        0.8157255185
 C        -4.8794719726        3.2120840461       -1.0644310522
 C        -5.3120008212        5.0332879073       -2.9738204262
 C        -3.5571423227       -2.2424496689       -1.5710896279
 C        -3.4881822582       -2.2771689244       -4.0820315664
 C       -10.9207123627       -1.1301390387       -4.3695132955
 C        -9.9335866721       -3.3857539475       -4.6819411621
 H        -9.8095083463       -2.1230061001       -7.7265101168
 H        -8.5695250278       -3.1768554528       -6.7553267456
 H        -7.9071121633       -1.9021224026       -7.7515913412
 H        -7.7720400614       -3.6151890091       -3.0769388361
 H        -8.6586241064       -3.1436415359       -1.5869045457
 H        -6.2241441737       -3.5051186094       -1.4676792436
 H        -6.4521646667       -1.7379926019       -1.0561039763
 H        -4.6212845741        0.5410342771       -5.0458260100
 H        -2.7980798868        0.6508559708       -4.8334443681
 H        -3.7699913531        2.6887660492       -5.0391317960
 H        -3.2830603215        2.5487576932       -3.3677437209
 H        -8.4997674314        4.5439173808       -3.1735938404
 H        -8.0869369415        5.6044231275       -2.0406697582
 H       -10.2658587991        5.0773205604       -1.1117715952
 H        -9.1057959174        4.2215407997        0.0700804656
 H       -13.7294494059        3.1674310968        1.1157558303
 H       -14.8910662072        3.9922863779        0.0276697451
 H       -14.8483114770        5.3603242686        1.9506846868
 H       -13.7848326183        6.1153801360        0.6921461919
 H       -13.0266532978        8.7362505769        5.2560256041
 H       -13.8759375743        7.1840169726        5.6367319719
 H       -16.1973089447        8.3621601906        5.4230643278
 H       -15.3283752523        9.7735424137        4.9734617687
 H       -17.3399701890       12.0351523703        8.8221887922
 H       -16.4482254354       10.5722123326        8.9093480404
 H       -17.6842001521       10.8835475623        7.6078147089
 H       -12.7114059847       11.6446448386        8.7420808567
 H       -12.8126303827        9.8357481362        8.5905334332
 H       -14.1153238938       10.6370207247        9.3676914314
 H       -13.5514526529       12.5608527113        5.8387879185
 H       -13.5692470209       10.9535130440        5.1656160176
 H       -12.2496419811       11.5730948170        6.4037042238
 H       -10.5350432552        6.7322037420        3.1003693126
 H       -11.2109197500        6.5693190467        4.5983473320
 H       -10.9429561115        8.1913833730        3.8775396895
 H       -13.1197992431        8.9288114606        2.0857647057
 H       -13.1764821663        7.7279195336        0.8507102827
 H       -11.5258315207        8.2872652280        1.6414447484
 H       -12.0431917900        0.7819206222       -1.0895615337
 H       -12.7717766135        1.6726619968       -2.1970256442
 H       -13.3498920359        1.4916468274       -0.5503550999
 H       -12.1110245453        2.3616627756        1.4140223132
 H       -10.7543346980        3.1535814335        1.5443004978
 H       -10.8632132077        1.4398107360        0.8632077268
 H        -5.2111621032        3.7733958147       -0.0706058064
 H        -3.7833842790        3.2018668775       -1.0230862797
 H        -5.1376684990        2.1719146182       -0.7600383254
 H        -4.5988132949        5.6265071640       -2.4267642891
 H        -6.1166449647        5.7222315416       -2.9358967937
 H        -4.9778793161        4.9010435836       -3.9483718435
 H        -2.5373170793       -2.5291903325       -1.7801633360
 H        -3.8540290540       -3.1859683999       -1.0628498038
 H        -3.5808537574       -1.6366645836       -0.6108678661
 H        -3.5751484703       -3.3215836206       -4.0117093052
 H        -2.3612128556       -2.0887128138       -3.9265197202
 H        -3.8059112483       -1.7543999379       -4.9362059002
 H       -10.8185687586       -0.1187604579       -4.9052931258
 H       -11.2430834774       -0.9897286924       -3.2465629664
 H       -11.7392121899       -1.6054109955       -5.0541497220
 H       -10.3623466630       -3.6852454782       -3.6952797221
 H        -9.0325675744       -4.0277936739       -4.8601626995
 H       -10.6775982044       -3.5377415890       -5.4514904370
 Na       -8.4529930655        1.2534897509       -3.6182633552
