117

 C        -8.9691176496       -1.9949264006       -7.0832537678
 C        -8.8792260856       -1.2152473777       -5.7484468901
 O        -8.5251487202       -0.0606506891       -5.8334929065
 C        -9.5737420742       -1.8914517679       -4.4982205591
 C        -8.6893944201       -1.7152889324       -3.2751119658
 O        -8.7772373298       -0.6647117990       -2.6731299832
 C        -8.0306572890       -2.9605980802       -2.5060211105
 C        -6.6780723580       -2.3828163854       -1.8613461412
 C        -5.7006277303       -1.7259614090       -3.0159178119
 O        -6.3770691540       -1.5135486874       -4.0413673979
 C        -4.1034768164       -1.5600022065       -2.8795461415
 C        -3.9439749842       -0.0174482037       -2.8556292677
 O        -3.9385627003        0.5548864602       -1.8138899157
 C        -3.8853737670        0.7008500234       -4.1836628091
 C        -4.0078572545        2.2625914088       -3.9314993690
 C        -5.3884916783        2.5540049019       -3.4814151916
 O        -6.2853050531        1.8384615801       -4.0070565906
 C        -5.7234831019        3.5769929303       -2.3084624868
 C        -7.2800849581        3.3950031415       -2.0456249290
 O        -7.5568267526        2.3978567652       -1.3765794969
 C        -8.4068656675        4.4319282358       -2.3075540835
 C        -9.5283879481        4.3818817470       -1.1865528898
 C       -10.5038745805        3.1278697013       -1.4553056999
 O       -10.3208154300        2.3288032917       -2.3439152126
 C       -11.7818883460        2.7737751622       -0.5177145137
 C       -12.6317457115        3.9938501920       -0.6182564295
 O       -12.5564459501        4.8096915646       -1.5326932844
 C       -13.7503504555        4.1144479066        0.3606401610
 C       -13.7042791882        5.3855618894        1.2398293390
 C       -12.6476944532        5.5145801027        2.2758006713
 O       -11.7268734441        4.7542114905        2.6358293890
 C       -12.6043751362        7.0714481102        2.8186677589
 C       -14.0593267722        7.3512290914        3.6826507079
 O       -15.1023728405        7.0451155527        3.1317425526
 C       -13.7781344768        8.3374084053        4.9535162348
 C       -15.1546848354        8.9640029618        5.5866865160
 C       -14.9429963335        9.5052962310        6.9555537837
 O       -15.2722626633        8.8463063997        7.8919106258
 C       -14.2772144724       10.8830192914        7.2425671399
 C       -15.4292969867       11.9443797918        7.4783484982
 O       -15.3128191277       13.0371761832        6.9093862616
 C       -16.7119408500       11.6540830349        8.1073988323
 C       -13.2447578996       10.6935530422        8.4425869465
 C       -13.3809618854       11.5101569995        6.1463393046
 C       -11.3621815021        7.1492048759        3.6724134756
 C       -12.5827924303        8.1239283908        1.6278181349
 C       -12.5294999474        1.5594537364       -1.0830810711
 C       -11.2309404158        2.4631335580        0.8998692996
 C        -4.7371579981        3.2537132263       -1.1612119075
 C        -5.2388965219        5.0261650521       -2.7021405874
 C        -3.6330391250       -2.1201780245       -1.5371014934
 C        -3.5207741503       -2.4798564130       -4.0340116832
 C       -10.8889874189       -1.0880971040       -4.2133390665
 C        -9.9756647999       -3.4225125674       -4.4917560974
 H       -10.0736422089       -1.8073772425       -7.2924820056
 H        -8.7176928265       -3.1410725568       -6.9954536184
 H        -8.3608863953       -1.6893646913       -7.9629337335
 H        -7.8413007746       -3.9064673138       -3.0241789291
 H        -8.6991059453       -3.1334980750       -1.6344521435
 H        -6.2427402400       -3.3314072050       -1.3946401860
 H        -6.8939278342       -1.6884664500       -1.1713020825
 H        -4.8176035639        0.4369721553       -4.6223547405
 H        -3.0527557858        0.4661124897       -4.8082116217
 H        -3.9360356998        2.6243042371       -4.9760542355
 H        -3.1475411258        2.5744699192       -3.3702499586
 H        -8.9229885500        4.3362392470       -3.4157186898
 H        -8.1132711728        5.4641632481       -2.4292825014
 H       -10.0751438266        5.2755820123       -1.1609395767
 H        -9.0056706744        4.2374449745       -0.1902761436
 H       -13.8578876505        3.1519619312        0.9883553201
 H       -14.6500446885        4.3415050710       -0.2750932741
 H       -14.7322767670        5.4179987716        1.6583913739
 H       -13.5487593819        6.2945154713        0.5642919407
 H       -13.0768103984        9.1312854788        4.6548456840
 H       -13.3305157924        7.7793403637        5.7514261110
 H       -15.8498886484        8.2242729542        5.6685237108
 H       -15.6662320375        9.7360237532        5.0367709124
 H       -17.2925579553       12.4911592782        8.5598148164
 H       -16.4859781680       10.9507123002        8.9789206714
 H       -17.4605236301       11.2639817746        7.4060204189
 H       -12.5878736890       11.5528286417        8.4073552490
 H       -12.6747551243        9.6857029400        8.3356307285
 H       -13.6602701536       10.5349175919        9.4515139495
 H       -13.6739635290       12.5517714773        6.2430000666
 H       -13.7076851754       11.3143153687        5.2217663781
 H       -12.3213925969       11.5598134276        6.3369194200
 H       -10.4281844924        7.3197610452        3.1661711295
 H       -11.2894136556        6.1176102840        4.1017929196
 H       -11.3697150968        7.8448321734        4.4029327785
 H       -13.0265758395        8.9819543803        2.0228879306
 H       -13.3146757871        7.7958062676        0.9113503821
 H       -11.6759843214        8.4181218213        1.2712963865
 H       -11.9028055169        0.7369672986       -1.3721815236
 H       -13.0416914473        1.7999254167       -2.0508847235
 H       -13.1737501243        1.0486089040       -0.4415553426
 H       -11.9275687706        2.3037149791        1.7284065740
 H       -10.6847165404        3.2189248467        1.4158362228
 H       -10.7460485592        1.4688985034        0.7730877806
 H        -4.4963203465        4.1549088599       -0.4669236332
 H        -3.7575135518        3.0145644225       -1.6070230016
 H        -4.8559702110        2.4612579934       -0.4000025461
 H        -4.8995311926        5.7131894148       -1.9848317308
 H        -6.1125315962        5.5451440349       -2.8679308271
 H        -4.6965330190        5.0032322235       -3.5719049039
 H        -2.6991385618       -2.6044608067       -1.5934530560
 H        -4.2290516663       -2.9680805129       -1.0781445589
 H        -3.6384451661       -1.4995476166       -0.6650846653
 H        -4.2577689072       -3.3486375554       -4.0032500775
 H        -2.6123268426       -2.9526735779       -3.7521709567
 H        -3.4641854178       -1.8649946990       -4.9785800611
 H       -10.8206635418       -0.2816939045       -4.9415607429
 H       -11.0597471565       -0.7219418858       -3.1544559828
 H       -11.7956414760       -1.6050840218       -4.6567566767
 H       -10.2829420965       -3.7843426805       -3.4728445020
 H        -9.0291143744       -3.9475496770       -4.7622112877
 H       -10.7592904919       -3.5843296553       -5.2394610815
 Na       -8.5407501143        1.1570114864       -3.5682250752
