117

 C        -9.1068005893       -1.9079860411       -7.1224028299
 C        -8.9566799813       -1.2650804292       -5.7066819599
 O        -8.3950762072       -0.2349193044       -5.5835581917
 C        -9.6336755144       -1.9758912833       -4.4710598473
 C        -8.7815889601       -1.8199086888       -3.0960372513
 O        -8.7527069071       -0.7408535600       -2.3517920796
 C        -7.9155724423       -2.9876551306       -2.5242507372
 C        -6.7006047218       -2.3302885836       -1.8758669199
 C        -5.8503292644       -1.7872572201       -2.9599435895
 O        -6.2764246447       -1.3865506087       -4.0689610326
 C        -4.2738294054       -1.7170492166       -2.7834445855
 C        -3.9561508672       -0.0964676068       -2.7458320994
 O        -3.9490744990        0.5135921468       -1.7235928814
 C        -3.8273646339        0.6203619560       -4.1490551576
 C        -3.9740936079        2.2479674054       -3.9515154453
 C        -5.3922803613        2.5162443810       -3.4940414325
 O        -6.3546599372        2.0049394176       -4.0007801710
 C        -5.6323928839        3.6444812614       -2.3069758645
 C        -7.2300085231        3.4080149711       -1.9012031710
 O        -7.5528343311        2.2469160449       -1.5604677463
 C        -8.4308982129        4.2279622123       -2.3492975797
 C        -9.6048186102        4.2461637502       -1.4596845460
 C       -10.4128374466        3.0273059685       -1.4594845398
 O       -10.2263417716        2.0870407034       -2.2133608386
 C       -11.6595563855        2.7249285696       -0.4574332490
 C       -12.6935973316        3.9946047864       -0.6091119912
 O       -12.4727591293        4.6816133400       -1.5796109344
 C       -13.9324356714        4.0611246377        0.3318220951
 C       -13.7436535550        5.5175036137        1.0825409526
 C       -12.5448531280        5.6854299172        1.9992662967
 O       -11.9259218411        4.7951831482        2.4904847509
 C       -12.5712254851        7.1393793772        2.8259174883
 C       -13.9023306745        7.4673801329        3.6181308163
 O       -15.0261670851        7.0925053010        3.2849865517
 C       -13.7931861773        8.4016613955        4.7426950710
 C       -15.1417601568        8.9119381793        5.3864316554
 C       -14.9391623876        9.5184603105        6.8780471700
 O       -15.4258228703        8.8762067024        7.8198843439
 C       -14.2230837123       10.9529312246        7.1917577038
 C       -15.3083428437       12.0338175535        7.5124327671
 O       -15.0957336678       13.1266173440        6.9061058319
 C       -16.6277661794       11.8564079061        8.2189899420
 C       -13.2881030982       10.7343514674        8.4884823594
 C       -13.3475275034       11.3268060137        5.9364076184
 C       -11.3848868326        7.2689027831        3.7399954641
 C       -12.5007307182        8.2337543620        1.7254274826
 C       -12.4441644140        1.5307997484       -1.0111999035
 C       -11.1388184835        2.4412750843        0.9512662834
 C        -4.8021276662        3.2202206295       -1.1257942420
 C        -5.3256985457        5.0846201071       -2.7279295256
 C        -3.7389260168       -2.1005557653       -1.4264275306
 C        -3.6570585270       -2.4820400409       -4.0077766099
 C       -10.9185879122       -1.0180500496       -4.1398128523
 C       -10.0155940750       -3.4565924390       -4.6160349475
 H       -10.1310060859       -1.9562097530       -7.4158022809
 H        -8.6126127996       -2.8776622395       -7.0602489840
 H        -8.5886242222       -1.4135190878       -7.9026672392
 H        -7.5641504433       -3.6761710101       -3.3723244244
 H        -8.4239339304       -3.5219847067       -1.8117507282
 H        -6.1651457540       -3.0219379064       -1.3404875568
 H        -7.0892956416       -1.4586054760       -1.2334670593
 H        -4.6784301152        0.1718900571       -4.7303915667
 H        -2.8928899799        0.4338690162       -4.5388614110
 H        -3.7888784870        2.8318275843       -4.8951531415
 H        -3.1299067003        2.3635862275       -3.2378329014
 H        -8.7549329730        3.8663472463       -3.3322772005
 H        -8.1671104570        5.3403875555       -2.6731685683
 H       -10.2995282371        5.0912150877       -1.5028497703
 H        -9.2392115691        4.2249667132       -0.5381259989
 H       -13.8592099446        3.1243472137        1.0374420047
 H       -14.8967460042        4.1560836240       -0.1853954378
 H       -14.5498694197        5.5395768781        1.7552343415
 H       -13.8575331137        6.3898650384        0.3863181615
 H       -13.3369038986        9.2568568289        4.2958762438
 H       -13.1279762232        8.1074227020        5.5366443489
 H       -15.8280894948        8.1155683406        5.4564832551
 H       -15.6101978927        9.7027365157        4.7574548143
 H       -17.2336131300       12.7369305098        8.3768681009
 H       -16.6893625133       11.2588047903        9.1307282096
 H       -17.2580938755       11.4016396815        7.3894229551
 H       -12.7808820230       11.6222402866        8.7415907197
 H       -12.6080958208        9.8296987222        8.2862478616
 H       -13.8187955065       10.2498660906        9.3175711288
 H       -12.8863723351       12.2826836191        6.0996849402
 H       -14.0164607027       11.5839948685        5.1059426609
 H       -12.5217335455       10.6925930723        5.7558557895
 H       -10.5632244584        7.8496040216        3.2732174751
 H       -10.9651414443        6.2974884624        4.0234923849
 H       -11.6188320220        7.8688809540        4.6416406013
 H       -12.3597472965        9.2296415729        2.1549153322
 H       -13.4062395194        8.1350389095        1.2444125935
 H       -11.6649438956        8.1465172518        1.1114779999
 H       -12.0288065113        0.5765966319       -1.4928111215
 H       -13.1604418269        1.8881040928       -1.7496433548
 H       -13.0445834669        1.0318225347       -0.2138355559
 H       -11.8822075570        2.2593506033        1.7496890975
 H       -10.7635337884        3.3198585334        1.4070871736
 H       -10.5125039331        1.5651932537        1.0074496579
 H        -4.6649367533        3.9131848155       -0.4375357182
 H        -3.8001232683        2.7895836764       -1.3510478035
 H        -5.2765871572        2.3731313743       -0.6129150176
 H        -5.6144320644        5.7768825316       -1.9920671551
 H        -6.0473899653        5.4874607777       -3.4589120093
 H        -4.2896437452        5.1440449817       -3.1343322425
 H        -2.6335601619       -2.2035424788       -1.3698916855
 H        -4.0813988671       -2.9618274244       -0.9357050288
 H        -4.0100223804       -1.4013605745       -0.7032258303
 H        -4.3433777808       -3.3233289656       -4.3087799183
 H        -2.7722662438       -2.9720539128       -3.6635110537
 H        -3.4653618570       -1.6731821319       -4.7725614179
 H       -10.9232932975       -0.1373577342       -4.7455123466
 H       -10.9226555332       -0.8357836574       -3.1277035061
 H       -11.8030234797       -1.4576889382       -4.4048263417
 H       -10.3832538593       -3.9361592897       -3.7114752498
 H        -9.1001759238       -3.9680250501       -4.8871541813
 H       -10.7563870646       -3.4723221874       -5.4600319997
 Na       -8.5954849075        1.3331360848       -3.6434790762
