117

 C        -9.1958590240       -1.7077876239       -6.9170046579
 C        -9.1507253042       -1.3031020901       -5.4700276763
 O        -8.6469553191       -0.2526879496       -5.2182828697
 C       -10.0214239658       -1.9395756887       -4.2083565104
 C        -8.9685693471       -1.8353961237       -2.9883210067
 O        -8.8480075141       -0.8032232729       -2.1909141304
 C        -8.1231840748       -3.0442071733       -2.6054294835
 C        -6.7338841435       -2.8531209311       -2.0512818513
 C        -5.8233975998       -1.8759418478       -2.8004822905
 O        -6.1748767029       -1.3334531322       -3.8329913116
 C        -4.3692752186       -1.7381743818       -2.4912162987
 C        -4.0010780366       -0.1852958057       -2.5030562563
 O        -3.6585056654        0.2805740720       -1.4102867517
 C        -3.8844825418        0.5288856420       -3.8531656086
 C        -3.9486784480        2.0693534304       -3.6290852887
 C        -5.4310935002        2.4456791411       -3.4642033931
 O        -6.1372654514        2.2875747045       -4.3851403423
 C        -5.8395166885        3.4156434390       -2.3586136397
 C        -7.3379932805        3.1574525748       -1.9498535608
 O        -7.6112298472        2.1152520078       -1.3442423872
 C        -8.4955919438        4.0112834662       -2.5133440460
 C        -9.8293273491        3.9108729020       -1.7829204701
 C       -10.6553467359        2.5712600120       -1.6357939677
 O       -10.4825326727        1.6812271300       -2.4103617300
 C       -11.6738619311        2.5103172638       -0.4137794786
 C       -12.6046746469        3.9177392550       -0.6473752547
 O       -12.3837078120        4.7028906199       -1.5395400344
 C       -13.8172951119        4.1930089595        0.2128652163
 C       -13.6629214619        5.6399533795        0.6771529444
 C       -12.6528870891        5.8403497295        1.8198173359
 O       -11.8449824469        5.0209666570        2.0697908284
 C       -12.6470168800        7.3249973761        2.5689120746
 C       -13.8841456099        7.5492253241        3.4968535158
 O       -14.7744169019        6.7583064615        3.4358163671
 C       -13.6121472809        8.6949683590        4.4825880857
 C       -14.8961732464        9.4672215631        4.9894535425
 C       -14.9159950770        9.9067904822        6.4860920610
 O       -15.8622434967        9.4910916910        7.1644134055
 C       -14.0330631688       11.0516766328        7.0852058268
 C       -14.9875477073       12.3045335603        7.3657153289
 O       -14.8021293252       13.3521098159        6.8116790321
 C       -16.1748669365       12.2422872486        8.3672657984
 C       -13.4397584320       10.4210731983        8.3516264568
 C       -12.8538624359       11.4451430513        6.1777636647
 C       -11.3355070950        7.4391626552        3.4759895791
 C       -12.5084494984        8.6316005265        1.5355605896
 C       -12.6020715660        1.2656694538       -0.4306448416
 C       -10.8555229956        2.7174752067        0.9345412833
 C        -4.9531139217        3.1844824321       -1.1066458402
 C        -5.7342345722        4.8494507763       -2.9351732845
 C        -3.7848569498       -2.2875718644       -1.1394961304
 C        -3.3764028479       -2.2208609362       -3.7194690061
 C       -11.3662175774       -1.1604976353       -3.9626932527
 C       -10.2871031843       -3.4850244276       -4.5601343531
 H       -10.2005957692       -1.5653538678       -7.4276748805
 H        -8.7373181975       -2.6806976974       -7.0211474458
 H        -8.6074316260       -0.9055490395       -7.5268501886
 H        -8.1752116784       -3.7686828316       -3.4549352922
 H        -8.6879840080       -3.4399013003       -1.8457035491
 H        -6.2822560048       -3.7532355247       -2.0982664235
 H        -6.7948589055       -2.5272259147       -0.9725889413
 H        -4.6546131604        0.2903054032       -4.5803730810
 H        -2.9495126770        0.2057592946       -4.0992617963
 H        -3.5129851947        2.5428516736       -4.5234540285
 H        -3.2436293211        2.3551507948       -2.8132727846
 H        -8.6106259225        3.4693265564       -3.5258757034
 H        -8.3407994227        5.1840321118       -2.8859781591
 H       -10.5572170581        4.5552486549       -2.2866031890
 H        -9.6498786562        4.3359455395       -0.8895573600
 H       -13.9436510758        3.3001489630        0.9122147998
 H       -14.5689105496        3.8998113212       -0.5984939741
 H       -14.5427415951        6.2113719555        0.9989044950
 H       -13.2312369069        6.1353017473       -0.2890859538
 H       -12.9012223728        9.3294681160        4.0731129407
 H       -13.0167478138        8.2777542342        5.2960793712
 H       -15.7984242219        8.8109692642        4.8047778236
 H       -14.8832919651       10.2655371157        4.3638928090
 H       -16.9737257200       12.9273291323        8.0826809344
 H       -15.9119986955       12.2597055756        9.4250971414
 H       -16.7962384359       11.2755800309        8.1949039308
 H       -12.7937214864       11.1433520063        8.9371996191
 H       -12.9481561777        9.5107319866        8.0822696294
 H       -14.1901700572        9.9535742837        9.0565275974
 H       -12.9260244718       12.4849705051        6.0515315649
 H       -13.0270945139       11.0318253750        5.1503883616
 H       -11.8833680691       11.1640590296        6.4253881072
 H       -10.7193571768        6.7042133097        3.0313360764
 H       -11.4384617920        7.2716030153        4.4852722260
 H       -10.8869362465        8.4648996603        3.2452416955
 H       -12.4318707195        9.4798178113        2.2197526055
 H       -13.3464780623        8.6476899433        0.9826583038
 H       -11.6360529352        8.6837764666        0.9561400351
 H       -12.1567762325        0.4146559177        0.0980236786
 H       -12.9334435011        0.9531289120       -1.3392525350
 H       -13.5695707328        1.4245169851        0.0577147040
 H       -11.3780067445        2.6536475550        1.9212617772
 H       -10.3551450214        3.7282828864        0.8698476183
 H       -10.0758535727        1.9353282711        1.0565365026
 H        -5.2797223599        3.7497930790       -0.2414251781
 H        -3.8530868041        3.3084785743       -1.2561710174
 H        -4.9421280059        2.0999507575       -0.9062246373
 H        -6.1531270159        5.0190290151       -3.8637465006
 H        -4.6736165876        5.0074271481       -3.0378641157
 H        -6.0138645966        5.5425810518       -2.1334117546
 H        -2.7067175528       -1.9695397654       -0.9804726981
 H        -3.9259861976       -3.3068994050       -0.9415862174
 H        -4.1986479486       -1.8055001760       -0.2356417932
 H        -2.9879817152       -3.2196786862       -3.4962083503
 H        -2.5591816510       -1.5041996846       -3.4499205392
 H        -3.8589916206       -2.2865111238       -4.7004837055
 H       -11.1808846496       -0.4822190921       -3.0631915393
 H       -12.1164402771       -1.9705740281       -3.7942968116
 H       -11.7304527587       -0.4383697777       -4.7531447073
 H       -10.5937884436       -4.0136520443       -3.6488820695
 H        -9.4743960500       -4.0670744934       -5.0126811550
 H       -11.1550847366       -3.3650606465       -5.2699436826
 Na       -8.2243664086        1.1305449028       -3.3226369042
