117

 C        -9.3769201083       -1.9028549614       -6.8224892424
 C        -9.2994363590       -1.1599225741       -5.4122939446
 O        -8.7785444259       -0.0386564848       -5.2969602952
 C        -9.9409960952       -1.9373237190       -4.1967069539
 C        -8.9665644425       -1.9594998962       -2.9381208610
 O        -8.8669550988       -0.9217673968       -2.2998679464
 C        -8.1139175733       -3.1964196046       -2.6320705767
 C        -6.6780217745       -2.9369192781       -2.0072779182
 C        -5.7972761237       -1.9472173168       -2.8812682606
 O        -6.2665115912       -1.3784646003       -3.8050598514
 C        -4.1970987838       -1.7603753683       -2.4599954543
 C        -3.8253478645       -0.1964043737       -2.3912339087
 O        -3.6345210322        0.3462537430       -1.3053680088
 C        -3.8903675723        0.4886647577       -3.7416472255
 C        -3.9736955419        2.0160467137       -3.5300072525
 C        -5.4995730867        2.5707186221       -3.5375121615
 O        -6.3140069895        2.1382966834       -4.3128726088
 C        -5.8352266640        3.5078575686       -2.3319725053
 C        -7.3386629916        3.1067182150       -1.9901200486
 O        -7.5134588433        2.2400368361       -1.1828775979
 C        -8.5173112744        3.8363809140       -2.7390287666
 C        -9.8157102975        3.9067197104       -1.8265765896
 C       -10.6320689357        2.6186183054       -1.7220636004
 O       -10.5527728209        1.7334218819       -2.5441458904
 C       -11.6909471386        2.6334762167       -0.5125076879
 C       -12.6570000999        3.8282867997       -0.6970813815
 O       -12.3089025624        4.5936365514       -1.5879473750
 C       -13.8602482437        4.2927310688        0.2643065245
 C       -13.7707576315        5.7288450646        0.7547956917
 C       -12.5505842882        6.0263338936        1.7920502590
 O       -11.7135187538        5.1775867604        2.1014741454
 C       -12.5549715899        7.3179427393        2.4986117038
 C       -13.7909169053        7.4451744217        3.4672544155
 O       -14.7707671611        6.7551103882        3.4244371086
 C       -13.5889662666        8.7137508581        4.5448394797
 C       -14.7606522350        9.7437206519        4.8501279043
 C       -15.0133063215       10.1002447499        6.3582320739
 O       -15.9380073889        9.6836298428        7.0174468541
 C       -14.0346590103       11.0931757262        7.0401374205
 C       -14.9297060190       12.3666894224        7.3310951265
 O       -14.7435143483       13.3203326822        6.7035741519
 C       -16.0887771180       12.2581935200        8.4128980505
 C       -13.4140663812       10.2690985436        8.3855318635
 C       -12.7720429773       11.5720847270        6.2504048143
 C       -11.2749565211        7.5186614835        3.3342883217
 C       -12.6522423931        8.3656517339        1.3932833162
 C       -12.5087522159        1.4028932140       -0.3522522414
 C       -10.9570305836        2.6891718559        0.9061199014
 C        -4.9943928462        3.1760933951       -1.0839525471
 C        -5.7960874804        4.9501192614       -2.8443198425
 C        -3.8832682650       -2.3528265848       -1.0897037060
 C        -3.3935521022       -2.4250558426       -3.5844849188
 C       -11.1920467421       -1.1503996177       -3.9053092559
 C       -10.3531046523       -3.4427289409       -4.5669612982
 H       -10.2885888991       -1.7242185225       -7.3070384034
 H        -9.1518098837       -2.9361928253       -6.6681109870
 H        -8.7445443218       -1.4237663220       -7.5494631772
 H        -7.9384777622       -3.6399035035       -3.5747560089
 H        -8.6454464567       -3.9750683480       -2.0286539515
 H        -6.2121249469       -3.9883480705       -1.8101917602
 H        -6.6963028796       -2.3691713189       -1.0503502665
 H        -4.7004791971        0.1908209487       -4.3673833095
 H        -2.8852946520        0.1558922666       -4.1506335707
 H        -3.3623313626        2.3891883035       -4.3973081608
 H        -3.2655412797        2.2881770288       -2.6958783222
 H        -8.5655628416        3.5094226386       -3.7900062381
 H        -8.3002747189        4.8522780919       -2.8209908040
 H       -10.4860102266        4.5762992713       -2.2502145372
 H        -9.4178737675        4.3831186864       -0.8375063615
 H       -14.0799554217        3.5357337314        0.9597891184
 H       -14.6180490179        4.0369581885       -0.5634061283
 H       -14.6226190182        6.0621202137        1.3849563429
 H       -13.7458467185        6.3053192491       -0.1388814279
 H       -12.6930581654        9.2798075143        4.1457406458
 H       -13.2104302544        8.3161400915        5.4447036673
 H       -15.7399601938        9.2687641938        4.4335113613
 H       -14.4396101974       10.5983346922        4.2693217545
 H       -17.0159148564       12.7824584205        8.0969902989
 H       -15.7881280051       12.4008710315        9.4606035223
 H       -16.4838664105       11.2384834301        8.3479029569
 H       -12.6156091664       10.9384574364        8.8955043962
 H       -13.1128349978        9.2639670204        8.2654742312
 H       -14.1999377297       10.2113280701        9.1827321789
 H       -12.7262231457       12.6066348713        6.3937994981
 H       -12.7731185378       11.3544770684        5.1701378801
 H       -11.8311056903       11.0881267468        6.5184337521
 H       -10.6482133221        6.5953568971        3.3214158052
 H       -11.6683845582        7.7094459776        4.3470968343
 H       -10.7333183760        8.4048962395        3.0205102884
 H       -12.8784170350        9.2933891008        1.7711353831
 H       -13.3568375926        7.9820568904        0.6618983169
 H       -11.7048219016        8.3801756075        0.8979818617
 H       -11.9060568592        0.6123769231        0.0913576680
 H       -13.0228861421        1.0069727633       -1.2869049086
 H       -13.4504850824        1.4956556245        0.2567754758
 H       -11.7297392317        2.3805738214        1.6072482121
 H       -10.4222573231        3.5986788755        1.3390472170
 H       -10.2779226117        1.8211254152        0.9985579909
 H        -5.1834594294        3.8026561718       -0.1528023500
 H        -4.0269390347        3.3008920144       -1.2970425570
 H        -5.0250571503        2.1759202597       -0.8837928467
 H        -5.8106591780        4.9423077233       -3.9849446155
 H        -4.9155729281        5.5164750479       -2.5485706398
 H        -6.6851793929        5.4644875635       -2.5727887168
 H        -2.9131111455       -2.5324082973       -0.7672128902
 H        -4.5224537395       -3.2172013976       -0.9607687828
 H        -4.2702000332       -1.6421082344       -0.3246598056
 H        -3.6035628335       -3.4811946974       -3.6164394441
 H        -2.2924827057       -2.1769290624       -3.3694482697
 H        -3.8513603296       -2.0709922706       -4.4912138811
 H       -11.0924314383       -0.7465904458       -2.9547566210
 H       -12.0344234880       -1.7878135626       -4.0304933972
 H       -11.3320335999       -0.3149315476       -4.5646149774
 H       -10.6710800946       -4.0406752438       -3.6730733909
 H        -9.4275391984       -3.9332065159       -4.9693646289
 H       -11.1014044036       -3.4007419365       -5.3620755995
 Na       -8.1987179583        0.9302448407       -3.1757084837
