117

 C        -9.4385151544       -1.8198236365       -6.8994428539
 C        -9.4275925466       -1.2448678059       -5.4760945282
 O        -9.0090312521       -0.1229575103       -5.2944557308
 C        -9.8593146227       -2.0122502507       -4.1900954819
 C        -8.8688712875       -2.1062491706       -2.9695590774
 O        -8.6824707176       -1.2892949056       -2.0404315661
 C        -7.9069934786       -3.3375161810       -2.9267044428
 C        -6.7482223062       -2.9555572406       -1.9230040059
 C        -5.8056905919       -1.9655590305       -2.6758625863
 O        -6.1705737816       -1.3290862909       -3.6944273020
 C        -4.3791710032       -1.8156736337       -2.3748303277
 C        -3.9803130024       -0.3318284857       -2.4125117712
 O        -3.6782581003        0.2046060781       -1.3596906246
 C        -3.9088910942        0.4840926244       -3.7483977076
 C        -4.0749176756        2.0375403668       -3.6887524055
 C        -5.4229982666        2.4837920764       -3.3138288798
 O        -6.3729686358        1.8803600937       -3.9030684060
 C        -5.8905502548        3.5865331471       -2.2820917752
 C        -7.3967946122        3.1911082684       -1.9955312493
 O        -7.5042641177        2.3749737315       -1.0822306409
 C        -8.6359614813        3.6396895927       -2.8736383882
 C        -9.7653916673        3.8449057249       -1.8758662896
 C       -10.5928494085        2.7037908696       -1.7305495730
 O       -10.5183709018        1.7001417055       -2.4210779632
 C       -11.6724143485        2.6808211813       -0.6032534669
 C       -12.6199512404        3.9332649711       -0.7476128885
 O       -12.6383447534        4.7331029338       -1.6578936449
 C       -13.6597822189        4.0648816305        0.5058191588
 C       -13.8257142686        5.5256492503        1.0159050045
 C       -12.6013656644        6.0030996678        1.7700514737
 O       -11.6873658556        5.2709453520        1.9649546310
 C       -12.5158580917        7.4383126493        2.4058566394
 C       -13.6285019001        7.6785034866        3.5424454345
 O       -14.6605624725        7.0918720385        3.4072487026
 C       -13.6037236972        8.6894637984        4.7115434096
 C       -14.6783517580        9.8894822583        4.5766437301
 C       -14.9976009641       10.3369812294        6.0093688940
 O       -15.9564629235        9.8552873482        6.5769670546
 C       -13.9777482742       11.0997697540        6.9459660441
 C       -14.8444502503       12.4235621470        7.3394414244
 O       -14.6964675189       13.3939713643        6.5751500159
 C       -15.8472760786       12.3118847492        8.5419818288
 C       -13.6871178697       10.3341783167        8.2624098439
 C       -12.5807816956       11.5172670780        6.3005431858
 C       -11.1361441401        7.7079820360        2.9704337163
 C       -12.7226338157        8.5712360769        1.3844099807
 C       -12.4858020378        1.4649344482       -0.8037649485
 C       -10.8414761489        2.7087023561        0.7205172202
 C        -5.0437866202        3.4680624406       -0.8908680245
 C        -5.6449077640        5.0107688004       -2.7757519909
 C        -4.0423720737       -2.4384244980       -0.9479162337
 C        -3.5064943200       -2.7442528374       -3.3455088637
 C       -11.0885846215       -1.1197723688       -3.5308260292
 C       -10.4621955335       -3.4326734897       -4.4885462708
 H       -10.4625419470       -2.1013192582       -7.2340583805
 H        -8.8739242151       -2.7016293271       -6.7560502657
 H        -9.1337837431       -0.9927833019       -7.6064237224
 H        -7.5421572383       -3.6757554454       -4.0004776871
 H        -8.3742833759       -4.2316742602       -2.4594953462
 H        -6.2809175258       -3.8343919493       -1.7152003958
 H        -7.1472325113       -2.5392232618       -0.9638701526
 H        -4.7300016964       -0.0170804374       -4.3879431511
 H        -2.9245404666        0.2895803128       -4.1782624339
 H        -3.6802737171        2.4437761629       -4.5866095002
 H        -3.3547947588        2.3398679629       -2.9727723061
 H        -8.7865498592        2.7982414642       -3.5350733586
 H        -8.4524363322        4.6917470545       -3.4487263663
 H       -10.3856682824        4.7511251100       -2.2899116067
 H        -9.3887999410        4.1103878759       -0.9573709979
 H       -13.2716764015        3.4196493025        1.3287426756
 H       -14.5604445366        3.5685030477        0.2840572321
 H       -14.7148133816        5.5903626308        1.5990813686
 H       -13.9183947690        6.2242801788        0.1360260082
 H       -12.5546249860        8.9787785625        4.7639454130
 H       -13.7818890955        8.0780426339        5.6936731443
 H       -15.5567459649        9.5808454862        4.0282600576
 H       -14.1282477047       10.6951992388        4.0848394418
 H       -16.6283590054       13.0083040850        8.4230602256
 H       -15.2243834096       12.5121614988        9.3864785608
 H       -16.2787208255       11.3134271947        8.7191467444
 H       -13.0386550308       10.9215037752        8.8594708786
 H       -13.0891745151        9.3826125528        8.1219995903
 H       -14.5726012393       10.2017898334        8.8965721612
 H       -12.0653774954       12.1219693866        7.1043142082
 H       -12.7460393128       12.1425108626        5.4070074497
 H       -11.9549126304       10.7709356034        5.8101910524
 H       -10.4769224790        6.9437677253        2.5654530007
 H       -11.0975180543        7.8065699676        4.0316295450
 H       -10.8815048481        8.7274005556        2.5662101856
 H       -12.3618317887        9.5305778043        1.9880352139
 H       -13.7842607352        8.7277772494        1.1341686366
 H       -12.1501410093        8.3402456004        0.4182702944
 H       -11.9199160317        0.5022521627       -0.8764887448
 H       -13.2334697162        1.4993316018       -1.5339643586
 H       -13.1109993654        1.3841905252        0.0913356177
 H       -11.4860203928        2.9026181797        1.5846868722
 H       -10.1197833173        3.4740494974        0.6372391049
 H       -10.2366214110        1.8370457719        0.9308285954
 H        -5.5384729393        3.9399648307       -0.0757566190
 H        -3.9958822215        3.9741501785       -0.9500820249
 H        -4.8951068240        2.3797102741       -0.5741748574
 H        -5.8017450509        5.1267655464       -3.8604958277
 H        -4.5364233250        5.1217228514       -2.5711442997
 H        -6.3557248787        5.8140493049       -2.3572509881
 H        -2.9152920153       -2.2740215543       -0.7270581653
 H        -4.2050287095       -3.5417086814       -0.9937181085
 H        -4.5541023710       -2.0400083158       -0.0494964306
 H        -4.2592590087       -3.4572427437       -3.5991941755
 H        -2.6984011656       -3.2180134339       -2.8315345084
 H        -3.2289892708       -2.2554745115       -4.2633160831
 H       -10.9705110954       -1.1840231111       -2.4278385864
 H       -12.0973567604       -1.3285461226       -3.8636449542
 H       -10.9133992079       -0.1208372831       -3.9148319940
 H       -10.9321704440       -3.7728798318       -3.5926974401
 H        -9.6514456580       -4.0511095510       -4.7635060234
 H       -11.1910231245       -3.4259128856       -5.3021775669
 Na       -8.3426006009        0.6568309009       -3.1827890347
