117

 C        -9.5548071250       -1.8844649897       -6.6420588295
 C        -9.4544821508       -1.2566092766       -5.2720326994
 O        -8.9219349277       -0.1773207103       -5.0450140426
 C       -10.0578836789       -2.1152010502       -4.1388376325
 C        -8.8248214240       -2.2557581283       -3.0583631025
 O        -8.8072879333       -1.4737356508       -2.1489600729
 C        -7.8867538345       -3.4967384893       -3.0691410929
 C        -6.5850734286       -3.2902918679       -2.3287249102
 C        -5.8766098441       -1.9920166564       -2.6492175687
 O        -6.4155994587       -1.2261518329       -3.3960492854
 C        -4.3005828311       -1.8177820476       -2.2383652710
 C        -3.9006506726       -0.3216204038       -2.3306223364
 O        -3.7523896692        0.3384287735       -1.3488728141
 C        -3.8979615861        0.3307045408       -3.7563360100
 C        -4.0071390727        1.8577630040       -3.3719132265
 C        -5.4786871307        2.1953262757       -3.1017731366
 O        -6.2735112345        1.4071909494       -3.5506725581
 C        -5.8934340093        3.4473194721       -2.1377772363
 C        -7.3949569787        3.3150498792       -1.8538144971
 O        -7.7789743999        2.4048373717       -1.1382951008
 C        -8.3536528676        4.1345839979       -2.7397951534
 C        -9.9114629794        4.1012578900       -2.3631925912
 C       -10.5384552786        2.7786791647       -1.7374019874
 O       -10.1072829233        1.7594426318       -2.3026862497
 C       -11.6341182110        2.6784351076       -0.6871777235
 C       -12.7007475921        4.0243951872       -0.4924575065
 O       -12.8407181325        4.7699019945       -1.4330699741
 C       -13.5810227441        4.1103820181        0.7679065425
 C       -13.7956259186        5.6396995151        1.1618331548
 C       -12.6038101283        6.1320098203        1.8225977495
 O       -11.5742203537        5.4485686626        1.9225925080
 C       -12.5610780887        7.6633875890        2.2288850609
 C       -13.5130145522        7.7555200773        3.4184516279
 O       -14.6742447451        7.3467370635        3.2685351288
 C       -13.2892586282        8.5941470450        4.6664334747
 C       -14.2470096176        9.7641495257        4.5947895002
 C       -14.8734405285       10.3478981347        5.8768301399
 O       -16.0445611343       10.0267983134        6.0544246451
 C       -13.8871176995       11.0801171077        6.9038819937
 C       -14.7973933482       12.6320347515        7.2817670967
 O       -14.6097292487       13.5307707820        6.4630780101
 C       -15.6505303093       12.5848264982        8.5672269467
 C       -13.8114681869       10.1504415201        8.0989669911
 C       -12.6251107930       11.6445475376        6.2620279678
 C       -11.1413026776        7.8486046371        2.7669195540
 C       -13.0510150933        8.7489128106        1.2525911788
 C       -12.7082477791        1.4517925501       -0.9351678230
 C       -10.8209730768        2.3862656810        0.5541824521
 C        -5.0058215055        3.4058086545       -0.9297320016
 C        -5.4948215052        4.7011353946       -3.0816806514
 C        -4.1415900928       -2.2373162334       -0.8250124642
 C        -3.5617983787       -2.7605588370       -3.3196094513
 C       -11.2079152486       -1.3746775490       -3.4100425277
 C       -10.6183764196       -3.5540678293       -4.4324685980
 H       -10.1279683036       -2.8306992245       -6.6467155618
 H        -8.5114420399       -2.1412087850       -7.0817775250
 H       -10.2053580347       -1.1924860823       -7.1079560417
 H        -7.7288901861       -3.6290166515       -4.0667216314
 H        -8.4706300202       -4.3813033393       -2.7042463138
 H        -5.8683427517       -4.2550508094       -2.4457787901
 H        -6.8053762577       -3.1989961043       -1.3009850806
 H        -4.7043368011       -0.0055736445       -4.2762529576
 H        -2.9889933538        0.0566236474       -4.2924302325
 H        -3.6054185229        2.4548900102       -4.2350715329
 H        -3.2341811427        2.0597526926       -2.5819357278
 H        -8.2851301976        3.8738311406       -3.8462840288
 H        -8.0684046326        5.0692104080       -2.5471059689
 H       -10.3179280859        4.4653007913       -3.2050415683
 H        -9.9561433975        4.9074915619       -1.5422688018
 H       -13.2581685468        3.4179099422        1.5555100857
 H       -14.7247486674        3.8526742011        0.6785442168
 H       -14.6845913823        5.5296292629        1.8846353809
 H       -14.0345418271        6.3514027823        0.3748004554
 H       -12.2187871561        8.8293372457        4.6767721802
 H       -13.4310964725        7.9373840601        5.4279201268
 H       -15.0778929636        9.5495571114        3.9123595384
 H       -13.6167690920       10.5704885640        4.0425524905
 H       -16.0031562141       13.6309061281        8.7975638108
 H       -15.0721691493       12.0629503330        9.3934619237
 H       -16.4794029941       11.9414564784        8.3229271057
 H       -13.7238023884       10.6009859371        9.1189154221
 H       -12.8239363361        9.6658738425        8.1037348569
 H       -14.7252360501        9.5694633742        8.1396097197
 H       -11.8793486922       11.7588289570        6.9980375461
 H       -12.6969002702       12.4997527698        5.6592163423
 H       -12.2538200211       10.9747862847        5.4827183276
 H       -10.4170263306        7.6908680869        1.9888835575
 H       -11.0976155294        7.0784506471        3.5639669349
 H       -11.0656702739        8.7052249188        3.2979325970
 H       -12.8471177879        9.5658872981        1.8213291414
 H       -14.1105331872        8.8325274202        1.0742539712
 H       -12.5063311976        8.6939024545        0.3735814646
 H       -12.3594834489        0.5229615137       -1.2410817022
 H       -13.4447442156        1.7546295373       -1.7375568213
 H       -13.3181401121        1.3288812233       -0.0705868557
 H       -11.6058504811        2.0338362905        1.2297543663
 H       -10.1634996465        3.1801704033        0.9557503503
 H       -10.0337656709        1.6249839659        0.3556449660
 H        -5.1721474937        4.2777150033       -0.3100842309
 H        -3.9838385259        3.5436870968       -1.2620952376
 H        -5.1335756732        2.5492508157       -0.2773496621
 H        -6.2999487482        4.8723480309       -3.7423538666
 H        -4.5339475455        4.6925649529       -3.4332613674
 H        -5.6635042779        5.5297588992       -2.4988562106
 H        -3.5482299158       -1.6264281987       -0.2365435039
 H        -3.6631189551       -3.2341193237       -0.8032996953
 H        -5.1214072137       -2.2876569212       -0.2791979210
 H        -3.8018479506       -3.8604036522       -3.2295706849
 H        -2.5262507641       -2.5035767114       -3.1513853416
 H        -3.8464181264       -2.2948743219       -4.2950589292
 H       -11.6222990009       -2.1665329330       -2.7210986953
 H       -12.0158204013       -1.0560114115       -4.1420805806
 H       -10.8649060305       -0.4163286005       -2.9797302378
 H       -10.7700797312       -4.0185063323       -3.4425641256
 H        -9.9488515143       -4.1214014665       -5.1070824306
 H       -11.6182799592       -3.5584105968       -4.8313856210
 Na       -8.4225647500        0.6532278253       -3.1508541011
