117

 C        -9.7302335248       -1.9430647998       -6.6715674151
 C        -9.4904169677       -1.5680091355       -5.1846414187
 O        -9.1162650383       -0.4397887602       -4.9120104896
 C       -10.2558642973       -2.3906434019       -4.0027902294
 C        -9.0316003670       -2.4906746399       -2.8613724070
 O        -8.7220113036       -1.6432677756       -1.9965066675
 C        -7.9482808007       -3.7015598248       -3.2201995792
 C        -6.5612209405       -3.5157089855       -2.6300844823
 C        -5.8822278522       -2.1016770007       -2.7690111618
 O        -6.5270205863       -1.2380800904       -3.2645471915
 C        -4.3847171936       -1.9498664019       -2.1715077307
 C        -3.9490828411       -0.3849221363       -2.1776344879
 O        -3.8005632498        0.2663432629       -1.1402485939
 C        -3.5806932838        0.3265319371       -3.5313408909
 C        -4.0366407181        1.7834213959       -3.6174284558
 C        -5.4715155742        2.0328888678       -3.0653205779
 O        -6.3194236102        1.3236784380       -3.4286586456
 C        -5.9366092172        3.4744706815       -2.2613949962
 C        -7.5527018928        3.3825447340       -1.9242929382
 O        -7.9057888609        2.6247622075       -1.0555388883
 C        -8.4612709225        4.5263488062       -2.4166362683
 C       -10.0717131884        4.3168849804       -2.2508305006
 C       -10.5363427409        2.9872927735       -1.8305222248
 O       -10.2225458515        1.9084290283       -2.2339405008
 C       -11.7552985119        2.7087286662       -0.7114796093
 C       -12.5216247426        3.9446984544       -0.4599600375
 O       -12.6641204878        4.8188819129       -1.3176974066
 C       -13.3812010697        4.0663123020        0.7727784805
 C       -13.7122205924        5.5471307340        1.1575915843
 C       -12.3876878255        6.2193880444        1.7883164349
 O       -11.3987847201        5.5467438266        1.7040963230
 C       -12.4393740989        7.7413013247        2.2398662238
 C       -13.6606418227        7.8036209250        3.3409040909
 O       -14.6870582545        7.2262975320        3.1525101084
 C       -13.3815260361        8.6543610651        4.6628458324
 C       -14.0014056368       10.1003793419        4.4186341999
 C       -14.7678658969       10.4720944315        5.6993834473
 O       -15.9787053887       10.4693597553        5.8259483552
 C       -13.9080824769       11.2391666821        6.8454318410
 C       -14.6924811027       12.5898772245        7.1390739011
 O       -14.5359068999       13.4902582591        6.4214565885
 C       -15.6364289843       12.7189855843        8.5318594213
 C       -13.8431700707       10.2182829490        8.0548149821
 C       -12.4273983628       11.6480953386        6.4502390299
 C       -11.0199379375        8.3615580553        2.4803059103
 C       -13.0598847311        8.5457788704        0.9521200444
 C       -12.6424341589        1.6357173149       -1.2539724905
 C       -11.0222496706        2.2846792155        0.7195363911
 C        -5.2661963400        3.4036658740       -0.8581043767
 C        -5.3396207226        4.4563694793       -3.2366082072
 C        -4.3300968308       -2.4797504578       -0.7072041917
 C        -3.4078006207       -2.5605459457       -3.1522698772
 C       -11.3460587043       -1.5249883154       -3.3865335354
 C       -10.6098206049       -3.7972442640       -4.5163762210
 H        -9.1978277343       -2.8286099498       -6.9960744041
 H        -9.3171077700       -1.1460052339       -7.1454142453
 H       -10.8385389395       -1.9669216115       -6.7663341558
 H        -7.9946293639       -3.8107810007       -4.4201641802
 H        -8.5597680151       -4.5067957254       -2.7711827199
 H        -5.8839385610       -4.0930861442       -3.1205529944
 H        -6.5437577319       -3.9225510437       -1.5556232830
 H        -3.8363143986       -0.3383834580       -4.4805424530
 H        -2.4779994449        0.2986434629       -3.4588378673
 H        -3.9676176855        2.1048611855       -4.6426320884
 H        -3.2794773235        2.3384130779       -3.0695969641
 H        -8.2796142067        4.8453982755       -3.4301625011
 H        -8.1068182854        5.3130247208       -1.6304627314
 H       -10.6028876271        4.2809419562       -3.3350816730
 H       -10.4640435562        5.1470834098       -1.7127597653
 H       -13.0074377600        3.4319979013        1.5473245188
 H       -14.2991689125        3.6385685032        0.5619137836
 H       -14.6119919512        5.6739540463        1.6403249632
 H       -13.7223319687        6.0332627943        0.1642479329
 H       -12.3272676675        8.5868961501        4.9244920886
 H       -13.9846694427        7.9915531180        5.4498038633
 H       -14.7610250795       10.1708686160        3.5380156200
 H       -13.2947783462       10.8291049191        4.1813072404
 H       -15.4938492278       13.7143936812        8.8887238757
 H       -15.2092830825       12.0148542509        9.2085712049
 H       -16.7060117328       12.4031582368        8.3780604737
 H       -13.1112981978       10.5385650928        8.7793918646
 H       -13.2600865885        9.4149992057        7.7231186999
 H       -14.7863380364       10.0224173316        8.5660063817
 H       -12.0209470818       12.4231390928        7.1372517261
 H       -12.2416533688       12.0870394506        5.3894046617
 H       -11.7064867688       10.8248347274        6.4657191614
 H       -10.6647952943        8.5951862417        1.4673016056
 H       -10.3565229032        7.7358625556        3.0302011451
 H       -11.1968310106        9.2899735558        3.1625379688
 H       -13.5589724326        9.4999924898        1.1951888969
 H       -13.9636700290        7.9894463973        0.6279854218
 H       -12.2895369526        8.5049409084        0.1357119348
 H       -12.0397276195        0.6817250020       -1.4982603959
 H       -13.0109252627        1.8685571256       -2.2453021974
 H       -13.4928433097        1.2953494753       -0.5278239295
 H       -11.7148125644        1.9049269607        1.4576513049
 H       -10.5458161822        3.2316013642        0.9934917829
 H       -10.1538292789        1.6938820144        0.5736300740
 H        -5.3097046187        4.3979397796       -0.2442173978
 H        -4.2775517517        3.0944900082       -0.8611908364
 H        -5.8943412502        2.7133222883       -0.3820861383
 H        -5.4762025231        4.1931138948       -4.2968066691
 H        -4.3035331817        4.3873835454       -2.7826659946
 H        -5.6984655805        5.5216795093       -3.2259342429
 H        -3.4115789121       -1.8863838620       -0.3358622928
 H        -4.0365217240       -3.4887889374       -0.4947651665
 H        -5.2246677564       -2.0806432416       -0.2022775227
 H        -3.2253629697       -3.4809643352       -2.6983548534
 H        -2.4627677178       -1.9324561074       -3.2091483229
 H        -3.7635381023       -2.6269095738       -4.1394512353
 H       -11.9380486462       -2.2001028358       -2.9302001886
 H       -11.9893216789       -1.0410561353       -4.0499092542
 H       -10.9560258748       -0.7800276938       -2.7729023499
 H       -11.2949402604       -4.2053405177       -3.7719077579
 H        -9.7705035309       -4.4560045053       -4.7725281914
 H       -11.2564311813       -3.7366451246       -5.4372345183
 Na       -8.3295018368        0.6684107157       -2.7803512128
