117

 C        -9.9120408683       -1.9040384193       -6.4239277755
 C        -9.7370494818       -1.6872292455       -4.8918174381
 O        -9.2384375901       -0.6470717839       -4.5025315895
 C       -10.2384838449       -2.6510958702       -3.8669800252
 C        -8.8895534412       -2.8451534791       -2.9592043355
 O        -8.8829223875       -2.3822657249       -1.8018481767
 C        -7.7321537252       -3.7469086547       -3.4865538847
 C        -6.5331189582       -3.6699952474       -2.4574127968
 C        -5.8571248647       -2.2948221984       -2.7118631789
 O        -6.3490288034       -1.4749988158       -3.4195528148
 C        -4.4844358083       -2.0501899485       -1.9862096016
 C        -4.2754889896       -0.4757170211       -1.9115974401
 O        -4.4578129040        0.1555146423       -0.8963030577
 C        -4.0619516403        0.1023384707       -3.3145019185
 C        -4.1036833317        1.6896434370       -3.1629208848
 C        -5.6492469692        2.1571997571       -2.9755277997
 O        -6.5925664074        1.4989716556       -3.4708890712
 C        -5.8991719433        3.4474800345       -2.1702822021
 C        -7.3675595481        3.2406057509       -1.8060974577
 O        -7.8342103872        2.2190436343       -1.3531968086
 C        -8.4011435214        4.3233824019       -2.2740485042
 C        -9.7192363146        4.4343167828       -1.4494944130
 C       -10.4969426203        3.1132193718       -1.9559938064
 O       -10.1985853619        2.5337290121       -2.9371500514
 C       -11.6137988371        2.6435940224       -0.8671021774
 C       -12.4647683007        4.0000802624       -0.5338418805
 O       -12.4121296260        4.8738230483       -1.3910519490
 C       -13.1382453157        4.2031085979        0.8129701741
 C       -13.6242086416        5.5781344181        1.2515535376
 C       -12.3816946299        6.5774044607        1.6163545090
 O       -11.2495415963        6.0870470629        1.5150193662
 C       -12.6707247335        8.0245076892        2.0087254574
 C       -13.6944856010        8.0067723646        3.2072710804
 O       -14.7393299268        7.3727318958        3.0789165805
 C       -13.4771679376        8.8724079195        4.4557814843
 C       -13.5849747599       10.4222118181        4.1194206161
 C       -14.4788967347       10.9487066147        5.4503021690
 O       -15.6823027039       10.9772918995        5.3418106797
 C       -13.7668225497       11.4171190296        6.8086786099
 C       -14.3352709000       12.8980984155        7.0791060280
 O       -14.0132076861       13.8525494296        6.4584225372
 C       -15.4982571532       12.7798785555        8.1168055963
 C       -14.0422054341       10.3153651940        7.7773621732
 C       -12.2117603910       11.6874807352        6.6638502049
 C       -11.3385129974        8.7481615527        2.2584382996
 C       -13.4245765805        8.6146884294        0.6381043559
 C       -12.5789761311        1.6181028348       -1.5978647862
 C       -10.7211641988        2.1234769809        0.2600160219
 C        -5.1067930506        3.4915702018       -0.7794246641
 C        -5.7227976837        4.6685931494       -3.1092948172
 C        -4.4833415827       -2.6576540319       -0.4870880604
 C        -3.4265703182       -2.7830206343       -2.8555632738
 C       -11.3915383244       -2.0811328878       -2.8802280028
 C       -10.6667619596       -4.0651610693       -4.4925882928
 H        -9.1377704975       -1.4110253654       -6.9249208047
 H       -10.8913431437       -1.5150585104       -6.6990469462
 H       -10.0908429878       -2.8844739397       -6.6603042113
 H        -7.5705339498       -3.3129755155       -4.5560081154
 H        -8.1357812531       -4.8033550901       -3.3420238053
 H        -6.0121476753       -4.5773769226       -2.6217381098
 H        -6.9348821167       -3.8010818026       -1.3897535184
 H        -4.8781903526       -0.3079922722       -4.0221746186
 H        -3.1331564687       -0.2948868381       -3.7447908967
 H        -3.7173045937        2.0161603286       -4.1346736219
 H        -3.3756223582        1.9511066664       -2.3421839045
 H        -8.7769524923        4.1349351853       -3.3051406013
 H        -7.9225239686        5.2802256930       -2.2612046949
 H       -10.3691968747        5.3307850718       -1.6545820870
 H        -9.5667893333        4.4828237614       -0.3445658391
 H       -12.3484191486        4.0047735230        1.4952649268
 H       -13.7877452925        3.3564685967        0.8857850437
 H       -14.0643192593        5.5669082180        2.1881070352
 H       -14.2550222532        6.0655688656        0.4975464091
 H       -12.4722452415        8.6246553435        4.8568286065
 H       -14.2456080215        8.5117651153        5.2176001636
 H       -14.2328490972       10.8179663831        3.2703919089
 H       -12.7196849437       11.0175311913        4.0363894884
 H       -16.2964315619       13.4462285525        7.7774654367
 H       -15.0990871371       13.2445193010        9.0158530264
 H       -15.8133631698       11.7218671429        8.3874034503
 H       -14.2689508553       10.6747719568        8.8282531800
 H       -13.2246774442        9.7210223219        7.7118485199
 H       -14.8461733937        9.6535993854        7.3938851762
 H       -11.5327572186       11.4401965607        7.3942799254
 H       -12.0757998543       12.7980655426        6.6553716911
 H       -11.7536684478       11.2212711729        5.8474421552
 H       -10.6571847227        8.6781313806        1.4349867618
 H       -10.7954048237        8.4151568646        3.1038017461
 H       -11.6998732877        9.8060071922        2.3031653082
 H       -13.2141584582        9.6002262419        0.4382724549
 H       -14.4943339741        8.2979970197        0.6965802752
 H       -12.9928432783        8.1041184091       -0.1917838451
 H       -11.9167524536        0.8096377783       -1.9585741509
 H       -13.0818401548        2.0635062574       -2.4803292479
 H       -13.2764715160        1.0556258044       -0.9149186558
 H       -11.3640579860        1.7227637692        1.0802028649
 H       -10.1470399796        3.0373341191        0.6617784346
 H       -10.1220260081        1.3025245517       -0.1485329331
 H        -5.8637294616        3.9401113037       -0.1411820277
 H        -4.2131237732        3.9860920726       -0.7371096573
 H        -5.0598499595        2.5175352468       -0.4698643185
 H        -6.6115268545        5.0730875086       -3.6414894818
 H        -5.0456383787        4.5230737779       -3.9499736682
 H        -5.3118335465        5.3702912161       -2.4630287884
 H        -3.6030135351       -2.2400200344        0.0105450578
 H        -4.5248092515       -3.7422935172       -0.4680164135
 H        -5.4231461036       -2.2711917287       -0.0862616997
 H        -3.9600034708       -3.6584457366       -3.1863386013
 H        -2.4384075401       -3.0738287538       -2.2808946297
 H        -3.1745712344       -2.1531525032       -3.6950930612
 H       -11.2004498069       -2.3564802905       -1.8810646191
 H       -12.4034813501       -2.4114286758       -3.0682142106
 H       -11.3459901132       -1.0143241096       -2.8893341404
 H       -10.5104389099       -4.9149179091       -3.8276041262
 H        -9.8982771946       -4.3106727805       -5.2422673043
 H       -11.6700871970       -4.1931963429       -4.9817912548
 Na       -8.5080670928        0.0254425394       -2.4927328934
