117

 C       -10.0139305432       -1.8673435724       -6.2726403062
 C        -9.7876489733       -1.5859991075       -4.8161744157
 O        -9.2788031725       -0.5572999342       -4.4875579110
 C       -10.1526748083       -2.7917437687       -3.7679323872
 C        -8.9498444741       -3.0351358922       -2.8846188654
 O        -8.9851780833       -2.3201039293       -1.8628891936
 C        -7.6969435337       -3.8293408707       -3.3764679909
 C        -6.4230139081       -3.7674567389       -2.5527652397
 C        -5.9197153530       -2.4166233659       -2.5577436948
 O        -6.4633088686       -1.6035965084       -3.3440914073
 C        -4.5511030549       -2.0813789137       -1.9242822408
 C        -4.4045779396       -0.5208983720       -1.9344614838
 O        -4.5781625168        0.1235152786       -0.9334112243
 C        -4.1245741693        0.0495330483       -3.3125686623
 C        -4.1000501791        1.5960482003       -3.2578467417
 C        -5.5581743309        2.0912546077       -2.9239559090
 O        -6.3962442522        1.4404387689       -3.5043268293
 C        -5.9105855361        3.3802386070       -2.0051655003
 C        -7.3836726162        3.2248981067       -1.8322267339
 O        -7.6730234117        2.1687172682       -1.2601962308
 C        -8.2438910503        4.4092105133       -2.2322481215
 C        -9.6667148493        4.3217797037       -1.4822919235
 C       -10.5583980774        3.1870656079       -1.9524668069
 O       -10.3687513506        2.6641849978       -3.0453691296
 C       -11.5689786359        2.7179310494       -0.9755615116
 C       -12.4488837637        3.9933389798       -0.4831523362
 O       -12.6688875435        4.8337834292       -1.2966620521
 C       -12.9317094844        4.1136254899        1.0146859258
 C       -13.5435534042        5.4973207618        1.1130334108
 C       -12.4833341381        6.5306274073        1.4649374131
 O       -11.3299374534        6.0994590983        1.4716228110
 C       -12.7377152739        8.1370530026        1.8515358301
 C       -13.7232669979        8.1881060224        3.1099083650
 O       -14.8010047788        7.5805052381        3.0960077449
 C       -13.3944100073        8.9278930934        4.4941448460
 C       -13.5344180470       10.3822092246        4.1919053234
 C       -14.4051769935       11.1242340062        5.3304398574
 O       -15.6279065246       11.0772572276        5.2407987762
 C       -13.6947960602       11.4222943876        6.5951631492
 C       -14.3965682158       12.8289372303        7.0222115618
 O       -13.8211945663       13.8802705422        6.6399407858
 C       -15.5634184963       13.0021025710        8.0212653965
 C       -14.0206571367       10.3538048475        7.6879643965
 C       -12.1642107333       11.6952444334        6.5364695861
 C       -11.3493904926        8.8878724572        2.2400343811
 C       -13.5548077451        8.5928947115        0.7125210149
 C       -12.5215149546        1.6511778439       -1.6393636714
 C       -10.8406437406        2.0918064279        0.2186240584
 C        -5.2107338072        3.5067997170       -0.6468414664
 C        -5.5882622564        4.5316713787       -3.1137237517
 C        -4.5967417741       -2.6284456494       -0.4386947714
 C        -3.3930926354       -2.7651356163       -2.8313294060
 C       -11.3325528211       -2.3083895214       -2.9067648654
 C       -10.6799498133       -4.1085135518       -4.3779115340
 H        -9.4923685232       -1.1254654587       -6.8393510413
 H       -11.1071428332       -1.9509162866       -6.4553312040
 H        -9.8273408264       -2.8770337427       -6.4669814431
 H        -7.6140050945       -3.1773403974       -4.2403980614
 H        -8.0134191183       -4.9435714674       -3.5401333660
 H        -5.8868326257       -4.7414465526       -2.8065945637
 H        -6.6109992658       -3.8601095206       -1.5529839584
 H        -4.7675229231       -0.4031229952       -4.0704041998
 H        -3.0424691066       -0.2877822354       -3.6281831216
 H        -3.7977385176        1.8081425233       -4.2501647401
 H        -3.2662374633        1.8295259557       -2.5524624180
 H        -8.5743810488        4.4653761235       -3.4063928632
 H        -7.6594593631        5.3249250855       -1.9805643609
 H       -10.2780201275        5.1223896119       -1.5123475275
 H        -9.6383925244        4.1538864507       -0.3450346867
 H       -12.2501023865        3.8935801095        1.7513636318
 H       -13.7553445526        3.3862729232        1.0640795934
 H       -14.2077742889        5.5387987001        1.9856656006
 H       -14.0213483960        5.7620273737        0.2136015052
 H       -12.2930535988        8.6270260768        4.8637103054
 H       -14.0797801473        8.4842804889        5.1814553730
 H       -13.9863679109       10.5995498224        3.3020058672
 H       -12.6050206361       10.9636308792        4.2032974915
 H       -16.3709168239       13.6606901581        7.6259094198
 H       -15.1284008352       13.4991989578        8.9104188705
 H       -15.8935109531       12.0259451867        8.2819476938
 H       -14.0367010000       10.8569014053        8.6151110587
 H       -13.2772528328        9.5454548618        7.5469707280
 H       -14.8684125253        9.8160992213        7.4646629605
 H       -11.6168242814       11.4396415608        7.4626157137
 H       -11.7865897195       12.6812191632        6.4647482025
 H       -11.6389160246       10.9135111064        5.9154605874
 H       -10.6719358845        9.1445756456        1.3969185132
 H       -10.7908313251        8.0975996199        2.8196712062
 H       -11.5390465368        9.7711565463        2.7639350160
 H       -13.7219945811        9.6687202573        0.8774913129
 H       -14.4443862707        7.9069965069        0.7776504996
 H       -13.1369800496        8.6304877396       -0.3321504281
 H       -11.9498956756        0.9536144869       -2.3257253837
 H       -13.3398349386        2.2263556646       -2.2888278489
 H       -12.9764808715        0.9677465032       -0.8948334654
 H       -11.6675696175        1.7023231508        0.7998521550
 H       -10.2126708775        2.7543432977        0.8628722994
 H       -10.4538468718        1.1684533537       -0.1859172539
 H        -5.7368089894        4.2922982380       -0.2522167548
 H        -4.1151093047        3.8442880885       -0.7839851410
 H        -5.3003643718        2.6089883538        0.0171029266
 H        -6.2852963315        4.4200176415       -4.0209236830
 H        -4.6466007890        4.2853218828       -3.6865114570
 H        -5.4744017525        5.5809051323       -2.7714676908
 H        -3.8713863553       -2.0339407661        0.0686001279
 H        -4.3920272015       -3.7558746156       -0.4511310394
 H        -5.6423814692       -2.5157528531       -0.0420879538
 H        -3.6563454438       -3.8292912703       -2.9625393915
 H        -2.4248361175       -2.6308600706       -2.5126336262
 H        -3.5497046796       -2.2747830196       -3.8091580480
 H       -11.4013426136       -2.6722916211       -1.9236155776
 H       -12.2013794880       -2.5318417116       -3.3977767495
 H       -11.2864179854       -1.2969189066       -2.7354441453
 H       -10.9532859829       -4.9278210407       -3.6908903428
 H        -9.8124471048       -4.5943824755       -4.9014812900
 H       -11.4776862752       -3.9792537722       -5.1235615927
 Na       -8.3564159739        0.1590631236       -2.5515015644
