117

 C       -10.3323760402       -1.8437097415       -6.2471640081
 C        -9.9812509952       -1.7539561602       -4.7114602942
 O        -9.5111937785       -0.6881490984       -4.2596677654
 C       -10.2418657327       -2.8734526577       -3.7229202404
 C        -8.9415094724       -3.0798029226       -2.7384310467
 O        -8.6506190121       -2.3148930108       -1.8973694039
 C        -7.9241234617       -4.2812408896       -3.1281229425
 C        -6.5635195605       -3.9206913318       -2.5512970281
 C        -5.9753415043       -2.4859880890       -2.6445949208
 O        -6.7251995071       -1.6824580152       -3.0612808359
 C        -4.5560792184       -2.1963710528       -1.8954046242
 C        -4.4595609345       -0.6083641721       -1.9990247077
 O        -4.8090201985        0.1364592970       -1.1111868766
 C        -3.7033697297       -0.0092862044       -3.2503697245
 C        -3.8895426845        1.5430915738       -3.1610626040
 C        -5.4077037627        1.9292742770       -2.9794263980
 O        -6.1933259421        1.2303712360       -3.5127363770
 C        -5.8118147111        3.2631279067       -2.1186948227
 C        -7.4516342008        3.2510487993       -1.7903299711
 O        -7.9119543995        2.2710283197       -1.2360232909
 C        -8.2337719428        4.4432584469       -2.0585011135
 C        -9.6334183012        4.4517168840       -1.4769067177
 C       -10.5386725229        3.2205958649       -1.9067815848
 O       -10.5149078392        2.8900861945       -3.0390977797
 C       -11.7213069165        2.6199000375       -0.9870768819
 C       -12.5319815978        3.9268304790       -0.4442684405
 O       -13.0220654948        4.5702515167       -1.3633843551
 C       -12.8517921432        4.1036007507        1.0120564910
 C       -13.4909989131        5.5491856156        1.3636872155
 C       -12.4056552269        6.6804764077        1.3604278639
 O       -11.2625206555        6.2756556515        1.5073593114
 C       -12.7961541676        8.0794670081        1.7321979061
 C       -13.8952502925        8.2565402053        3.1428199015
 O       -14.9770773313        7.7579712134        3.0949703882
 C       -13.1802887846        8.9262619509        4.2686590078
 C       -13.4587904390       10.5098322535        4.0538668699
 C       -14.3512252200       11.1624532532        5.2097198998
 O       -15.5235327252       11.4218411852        5.0014029891
 C       -13.6307519776       11.5505086647        6.6443907605
 C       -14.1556870904       13.0839211987        7.0022027038
 O       -13.4308133513       13.9838269530        6.9531557466
 C       -15.6416598522       13.1310872954        7.6107474066
 C       -14.0223256905       10.4303193942        7.6503627649
 C       -12.1335885947       11.6611399663        6.4640299568
 C       -11.4418349406        8.8802343210        1.7871745528
 C       -13.7871650648        8.7526288031        0.7277622754
 C       -12.7127503008        1.7837363030       -1.7945775178
 C       -11.0774312185        1.8577963429        0.2386343422
 C        -4.9659509131        3.3807903686       -0.6821846364
 C        -5.2126348719        4.3169706535       -3.0057166789
 C        -4.6689319104       -2.5834650178       -0.3522223452
 C        -3.4171924708       -2.9436260716       -2.5623155245
 C       -11.4894797108       -2.3384764064       -2.8942679118
 C       -10.4946088842       -4.1692354369       -4.4360820694
 H       -10.4277486558       -0.7520264974       -6.5244190350
 H       -11.0993319872       -2.5888017481       -6.5286325867
 H        -9.4776080948       -2.3172046964       -6.8212116042
 H        -7.8923340913       -4.5822271554       -4.1577610065
 H        -8.4286383432       -4.8926292970       -2.4974331421
 H        -5.9116110468       -4.6117156771       -2.9846767585
 H        -6.4437561288       -4.2230424081       -1.4102327596
 H        -4.0132118448       -0.4695305856       -4.1824995776
 H        -2.7277109440       -0.2724267246       -3.1358905055
 H        -3.6136852031        2.0605662447       -4.0956837327
 H        -3.3398300429        1.8665984185       -2.3074993091
 H        -8.1619016228        4.8043178936       -2.9971234597
 H        -7.7788804531        5.2267027192       -1.4128606891
 H       -10.0686040104        5.4974262973       -1.7908554002
 H        -9.6565818202        4.5424942235       -0.4376028092
 H       -11.8810957668        3.8544144990        1.6173787611
 H       -13.6463760552        3.4384611299        1.4403034049
 H       -13.9521997495        5.3676027970        2.3528984497
 H       -14.3638137639        5.8438039282        0.6614493498
 H       -12.2253275317        8.6402730126        4.1516748540
 H       -13.5244992330        8.4226601622        5.1825666714
 H       -14.2778755572       10.5207115752        3.1893808410
 H       -12.5887308122       11.1415679029        3.8281342520
 H       -16.2551280799       13.7663482564        7.0362758941
 H       -15.5361031661       13.5856148607        8.5625990935
 H       -16.1128512098       12.1196151607        7.5928983182
 H       -13.1708114977       10.4290479440        8.3916821259
 H       -14.1819810217        9.5504119721        7.1193079801
 H       -15.0295353008       10.4353618086        8.1617282377
 H       -11.6285455138       12.4473852876        7.0151952700
 H       -11.8508003856       12.0857949091        5.4354508668
 H       -11.5702771782       10.7905021612        6.6462494369
 H       -11.0095859170        8.9040641572        0.7875545594
 H       -10.6830035113        8.4400277926        2.3768801883
 H       -11.7010651529        9.9796681702        2.0217949569
 H       -14.2321492171        9.5956991020        1.2134959764
 H       -14.4465636637        7.9377768364        0.3809047873
 H       -13.3428487690        9.2713621381       -0.1195515669
 H       -12.1894087252        1.1675553805       -2.4984809932
 H       -13.3859123746        2.4235834701       -2.2583302009
 H       -13.2799964261        1.1082498293       -1.1553969378
 H       -11.7099410454        1.4230707781        0.9857772751
 H       -10.5574316946        2.6495822521        0.7031744247
 H       -10.5586002343        1.0258033300       -0.1723919745
 H        -4.7816333348        4.5109584318       -0.3533027978
 H        -4.0481005960        2.8414458969       -0.7950592865
 H        -5.4992445237        2.7483571107        0.0343045680
 H        -4.8828593886        3.9193684200       -3.9490280581
 H        -4.3056971605        4.8071036860       -2.6640646013
 H        -5.8933460772        5.1185949777       -3.1564872522
 H        -3.8020116923       -2.0124566384        0.1242360404
 H        -4.6252226444       -3.6530142578       -0.3171176838
 H        -5.6231741460       -2.3145818239        0.0937590741
 H        -2.9476500602       -3.6609115970       -1.9032676919
 H        -2.5781415178       -2.1189659647       -2.6406198458
 H        -3.5570965121       -3.3975566529       -3.5175558239
 H       -12.0479724702       -3.1475000276       -2.3780140456
 H       -12.2213703243       -1.7047418731       -3.5297048232
 H       -11.2093875481       -1.7991340357       -1.9326641753
 H       -10.8812914830       -4.8935034451       -3.7710064148
 H        -9.6881501605       -4.6864052470       -4.8743949818
 H       -11.2142391655       -4.0488899785       -5.2378990271
 Na       -7.9853086124        0.3889964232       -2.6117537392
