117

 C       -10.4895569191       -1.7010852671       -5.9855527383
 C        -9.9113120798       -1.6910367767       -4.6166188235
 O        -9.5192744341       -0.6871312437       -4.1140799868
 C       -10.2495828575       -2.9953512126       -3.6874274092
 C        -8.9890203321       -3.0139267785       -2.7491140973
 O        -8.8620816319       -2.2187679776       -1.8024977808
 C        -7.9937876365       -4.1564964687       -2.8573881150
 C        -6.5582746805       -3.9349862451       -2.3740799373
 C        -5.9413579101       -2.6184611682       -2.5060323519
 O        -6.4966057256       -1.7970086290       -3.2687498698
 C        -4.5444149111       -2.2382273399       -1.7033026468
 C        -4.4040706615       -0.7132081448       -1.9786957136
 O        -5.1746433560       -0.0028728874       -1.3414993121
 C        -3.4864721100        0.0241421099       -3.0008807283
 C        -3.7186718209        1.4892863758       -3.0822482974
 C        -5.2231745027        1.8923495429       -3.0619725355
 O        -6.0474281224        1.2076422187       -3.5928252290
 C        -5.7649241765        3.1986211313       -2.0351616240
 C        -7.4391357509        3.2037323644       -1.8375294912
 O        -7.8967605249        2.1821181625       -1.4367042032
 C        -8.2306794553        4.4482276064       -1.9406769642
 C        -9.5964886710        4.3353047125       -1.2135521758
 C       -10.5160611732        3.3554669085       -1.8704710071
 O       -10.3324001760        2.9136930307       -3.0199465859
 C       -11.7908089434        2.7936334031       -1.0149892227
 C       -12.7332014037        3.9603831647       -0.5805215012
 O       -13.4017395384        4.6789747874       -1.2801166393
 C       -12.8574897772        4.1416709037        1.0308739604
 C       -13.5550531284        5.5784986526        1.4343717321
 C       -12.4810486409        6.6541504201        1.5034208985
 O       -11.2824566695        6.5200231553        1.3710178948
 C       -12.9321687397        8.1700066085        1.6467362981
 C       -13.6876730445        8.3153592776        2.9562481987
 O       -14.6514526746        7.6148470486        3.0622594445
 C       -13.2056033550        9.2340289704        4.2973221559
 C       -13.4710877382       10.6357114005        3.9041023624
 C       -14.2560108890       11.3557314180        5.1424607481
 O       -15.3925432674       11.6701759135        4.9664692313
 C       -13.5072394865       11.7003484253        6.5308343221
 C       -14.0683109110       13.0844272386        6.9599368647
 O       -13.1732547266       13.9327024227        7.2697926131
 C       -15.5914712776       13.2982863117        7.0355987659
 C       -14.0493741257       10.5882435998        7.6896896927
 C       -11.9545313676       11.6079422194        6.3905347324
 C       -11.7954709663        9.2007362740        1.5359289204
 C       -13.8016218033        8.4345692267        0.4348497270
 C       -12.6028780848        1.7688172301       -1.9078186811
 C       -11.1024731232        1.8742102459        0.0643197301
 C        -5.1053153903        3.0120202672       -0.7000840670
 C        -5.2856354365        4.3918484071       -2.9490222870
 C        -4.7569742096       -2.4631925461       -0.2055025417
 C        -3.5319214871       -3.1584034712       -2.4336730662
 C       -11.3923128232       -2.6395376556       -2.7368648685
 C       -10.6516504077       -4.2772158745       -4.4339565917
 H       -10.6516796699       -0.7213284302       -6.2490490391
 H       -11.2870255417       -2.3589390564       -5.8856297644
 H        -9.8814903348       -2.1722691921       -6.7224771047
 H        -8.1679681355       -4.2449846980       -3.9622653052
 H        -8.6169837102       -5.0155370246       -2.2546028490
 H        -5.8376512124       -4.7192280593       -2.8295593961
 H        -6.5259751793       -4.1420405033       -1.3517358761
 H        -3.5402367360       -0.4914385478       -3.9777735237
 H        -2.3729643896       -0.1681939531       -2.6263888358
 H        -3.1395125016        1.9468688574       -3.9038603467
 H        -3.3220874659        1.8036736861       -2.0829818508
 H        -8.3572229001        4.7435592856       -3.0606053264
 H        -7.7991588469        5.4072797384       -1.5430798015
 H       -10.0456072119        5.2818854190       -1.2432935254
 H        -9.4955354668        4.1372135577       -0.0868710952
 H       -11.9349238919        4.0587561296        1.4923289323
 H       -13.4843849971        3.4331918242        1.5097653218
 H       -14.1355541841        5.4680372700        2.3633974494
 H       -14.2843290479        5.8402742323        0.7340654807
 H       -12.0917429084        8.9948999373        4.6192930028
 H       -13.8434140034        8.8557820010        5.1550363555
 H       -14.1756155644       10.6494004312        3.1619831028
 H       -12.4831102387       11.1024932066        3.6598816627
 H       -15.8796348496       14.2622215837        6.5335006772
 H       -15.7061950946       13.5188355064        8.1272225816
 H       -16.1385725286       12.4888945839        6.6405033222
 H       -13.3711498110       10.5043688622        8.4603946614
 H       -14.4726208063        9.5911450260        7.2278473027
 H       -14.9661613014       10.9226509207        8.0842048056
 H       -11.4039378626       11.9765563571        7.2748944215
 H       -11.6271696534       12.2007686254        5.6106723548
 H       -11.5656562621       10.5734588010        6.1703222521
 H       -10.8761094407        8.9429689203        1.0144046087
 H       -11.4511652617        9.4647256741        2.5704268726
 H       -12.1895279553       10.0732291520        1.1572225796
 H       -13.8368137032        9.5462849984        0.2247832903
 H       -14.7485154367        8.0764489638        0.5575879428
 H       -13.3932324167        7.9692816373       -0.4190810280
 H       -11.8771638355        0.9305040756       -2.0696841625
 H       -12.8284644224        2.3004405148       -2.8435760202
 H       -13.5855939625        1.5132006544       -1.5422896604
 H       -11.8546008736        1.4186076904        0.7315045548
 H       -10.5062653083        2.5013963573        0.7202829584
 H       -10.6659954468        1.0837205215       -0.5598907556
 H        -5.3236479065        3.8229113787       -0.0646527617
 H        -4.0628060441        2.9172029102       -0.7415199047
 H        -5.4202333116        2.0788872172       -0.3976896841
 H        -4.9518522187        3.9563573395       -3.8569902436
 H        -4.5126449374        5.0748305652       -2.6731631138
 H        -6.0595071031        5.1529722921       -3.2265377007
 H        -3.8089500832       -2.2657226813        0.1724802675
 H        -5.3421285281       -3.3671977576       -0.0704530871
 H        -5.3212614426       -1.6442064024        0.1925087713
 H        -3.5105825595       -4.1644751643       -1.9142209716
 H        -2.5456127653       -2.8764239373       -2.5464271208
 H        -3.9744291536       -3.4365209001       -3.4558499011
 H       -11.8745975657       -3.5551260272       -2.3629560452
 H       -12.1036907352       -2.0883426723       -3.2934597501
 H       -11.2423500588       -2.1569411798       -1.7916186269
 H       -10.1781978769       -5.2394159443       -4.1572636504
 H       -10.5903443704       -4.2313017885       -5.5354938997
 H       -11.6936348238       -4.4858906596       -4.2849419059
 Na       -8.0326292782        0.0699038421       -2.6181663917
