117

 C       -10.8335059612       -1.6104805424       -5.8040297577
 C       -10.1105115773       -1.6101348973       -4.4468072910
 O        -9.4748430757       -0.5957176604       -4.1540916279
 C       -10.3727001796       -2.9767224192       -3.4711683824
 C        -9.1060820751       -3.0842943129       -2.6207123397
 O        -8.7939776775       -2.2768951010       -1.8007228908
 C        -7.9383462157       -4.1032327435       -2.9102900005
 C        -6.7742672330       -3.9181617807       -1.9158109337
 C        -5.8954986542       -2.6602307834       -2.4584995765
 O        -6.3119309666       -2.1452900085       -3.4553563122
 C        -4.6754832631       -2.1618038577       -1.7030638218
 C        -4.6229214686       -0.6521120959       -1.8498010237
 O        -5.5630990902       -0.0422110147       -1.3914389109
 C        -3.5536031827       -0.1119345320       -2.7335150958
 C        -3.7962506332        1.5076418785       -2.9636356943
 C        -5.3607327917        1.8649211734       -3.0542997842
 O        -6.1076546778        1.1827503416       -3.7957198753
 C        -5.8286401296        2.9808708337       -2.1196703304
 C        -7.3264078773        2.9229502553       -1.9965036379
 O        -7.8476643534        1.8042771729       -1.8264381636
 C        -8.0850385458        4.2641967883       -1.7782736150
 C        -9.4190143388        4.1604329303       -0.9968566260
 C       -10.4896735089        3.3793049923       -1.8623778369
 O       -10.2164744276        3.0796832464       -2.9988908449
 C       -11.7376292860        2.9483799044       -1.0212647503
 C       -12.7067121177        4.0567326959       -0.4357589744
 O       -13.4999945855        4.5480934524       -1.2785996067
 C       -12.6805602662        4.3001137444        1.0434873874
 C       -13.2992270583        5.5753792780        1.3875988775
 C       -12.2943116625        6.7067804745        1.4086051050
 O       -11.0754126209        6.6058826140        1.2705556171
 C       -13.0023107250        8.1066141958        1.3678147998
 C       -13.7065580695        8.3135841307        2.8503377531
 O       -14.5906843328        7.5338845455        3.1456872649
 C       -13.2108213683        9.2384652954        3.9876629254
 C       -13.3582022711       10.8685593703        3.8061555059
 C       -14.2304794102       11.5165298885        4.8883421412
 O       -15.4450241393       11.7049112545        4.8124848432
 C       -13.5354184374       11.7553513069        6.4080699231
 C       -13.8332571798       13.2244274068        6.9462010326
 O       -12.9848584839       13.8310764081        7.5080701901
 C       -15.3182278415       13.9024652265        6.9159681952
 C       -14.1119128906       10.7310626837        7.3731191290
 C       -11.8637827967       11.6068669706        6.4358628823
 C       -12.0172141862        9.1463240521        1.2890427109
 C       -14.0674403800        8.3440549721        0.2594057126
 C       -12.5425742382        2.1561283571       -2.1236767063
 C       -11.2969125455        2.0302328539        0.1763625264
 C        -5.4057728866        3.0040171837       -0.5414394475
 C        -5.4094855116        4.3104353813       -2.8297682824
 C        -4.6959617016       -2.5340920413       -0.1186580797
 C        -3.5435533898       -3.0721495431       -2.2605876521
 C       -11.6569399468       -2.7880378630       -2.5178807595
 C       -10.4238613105       -4.2080052781       -4.3638558561
 H       -10.6582139490       -0.5471753189       -6.1593336017
 H       -11.9776792113       -1.8582527952       -5.6904086441
 H       -10.3928233403       -2.2815882886       -6.5554064751
 H        -7.8064829423       -3.9311223053       -3.9272139855
 H        -8.2833923901       -5.0470683575       -2.7740764545
 H        -6.2625168253       -4.8445040994       -1.9144924346
 H        -7.2085325584       -3.8407971768       -0.8284764731
 H        -3.4015858004       -0.7284939060       -3.6271466649
 H        -2.6853755134       -0.2427691581       -2.1797152443
 H        -3.2260629993        1.8047038789       -3.8299052881
 H        -3.2875292518        1.9732217513       -2.1368974362
 H        -8.2756797623        4.7244892411       -2.7493085547
 H        -7.4679605222        5.0040973414       -1.3221380279
 H        -9.9520309598        5.1279356567       -0.7208606353
 H        -9.1894507481        3.6492516366       -0.0752115284
 H       -11.6210918363        4.3946508161        1.4991144153
 H       -13.1884323362        3.3701009128        1.4467022764
 H       -13.7833335754        5.6374063726        2.3523735742
 H       -14.1415494861        5.8160931881        0.6053376013
 H       -12.2709787623        8.8536643442        4.2369408017
 H       -13.8753476757        9.0521967650        4.7979906775
 H       -13.7024764432       11.1236650291        2.7316648254
 H       -12.3805674654       11.2151299952        4.0643903695
 H       -15.3930490302       14.5805233468        6.0972890715
 H       -15.5428531418       14.4065085431        7.8253330776
 H       -15.9724644932       13.0360250603        6.6571963413
 H       -13.8896112847       10.9941453927        8.4809261243
 H       -13.5954059272        9.8508915766        7.2122211378
 H       -15.2017833022       10.5326875019        7.1747293401
 H       -11.4753313590       11.2920394079        7.4107299181
 H       -11.2932387668       12.5583396926        6.0221584220
 H       -11.5286610370       10.8769870320        5.6771436719
 H       -11.3712124048        8.9565875145        0.4156901504
 H       -11.3625169809        9.1209322184        2.1391580770
 H       -12.4294862949       10.2122897406        1.2253998200
 H       -14.3004551063        9.4082172848        0.1970272141
 H       -15.0885516557        7.8825828171        0.6775389487
 H       -13.8588275358        7.8454366012       -0.7801847351
 H       -11.9950621531        1.2577998375       -2.3340970304
 H       -12.7918593892        2.7459694101       -3.0501705427
 H       -13.5531354135        2.0129050379       -1.6759615028
 H       -12.2496812012        1.6066528525        0.4938040491
 H       -10.9084163008        2.6132143809        1.0395464434
 H       -10.6381028388        1.2644680002       -0.2684684424
 H        -6.1448357167        3.5919551595        0.0096123338
 H        -4.4081427800        3.6176757876       -0.4091844645
 H        -5.1555048010        1.9181088840       -0.1675383375
 H        -4.9308916279        4.2490597069       -3.8864819487
 H        -4.5879345929        4.7352231539       -2.1791330521
 H        -6.0141320443        5.1844086836       -2.8766006794
 H        -3.7907377795       -2.1590071298        0.3616674274
 H        -5.0124509498       -3.5520307455       -0.2376081846
 H        -5.5404513480       -1.9527222992        0.3026428600
 H        -3.8661448316       -4.0359597911       -2.5235894477
 H        -2.6826819481       -3.1948686675       -1.5360229633
 H        -3.1028481187       -2.7302226016       -3.1569833452
 H       -11.3952274818       -3.1589965426       -1.5548557637
 H       -12.6129862776       -3.1505328721       -2.8180209429
 H       -11.8793183561       -1.7586301074       -2.3579294780
 H        -9.9689533208       -5.0557400402       -3.8546285528
 H        -9.9508675889       -4.0317984421       -5.3310080227
 H       -11.4153113336       -4.6840256706       -4.6118465216
 Na       -7.7336056098       -0.2426195431       -2.4734064263
