117

 C       -11.2709497565       -1.4361780240       -5.4170820859
 C       -10.2048987340       -1.6784239964       -4.3405142045
 O        -9.4970378426       -0.8022978657       -3.9756460809
 C       -10.2902626215       -2.9812884770       -3.4845938703
 C        -9.1100814008       -3.0516723637       -2.5891755899
 O        -8.9334190902       -2.2006021152       -1.6878668055
 C        -8.1005276238       -4.1919296115       -2.5888947608
 C        -6.8412684789       -3.9224713520       -1.7570049550
 C        -5.8966873435       -2.8861923484       -2.4246099360
 O        -6.0713011800       -2.4024069664       -3.5152933384
 C        -4.6443404077       -2.2379335323       -1.5668589544
 C        -4.6650428913       -0.7645000025       -1.7870191289
 O        -5.5641564991       -0.1480718978       -1.1788421315
 C        -3.5910979419       -0.0708211703       -2.6225641046
 C        -3.8275434131        1.3899257225       -2.7538848972
 C        -5.2682342656        1.7402111273       -2.9625671887
 O        -5.9632702091        1.2621667273       -3.8170170929
 C        -5.9610074677        2.9554120623       -2.1090475956
 C        -7.5246591389        2.9395985963       -1.9441742597
 O        -8.1771667829        1.9335593390       -2.0909046608
 C        -8.1190150026        4.2447703157       -1.5726367638
 C        -9.3638772408        4.0740027873       -0.7890014826
 C       -10.4913083695        3.4112498582       -1.7085535313
 O       -10.3326819942        3.4866253391       -2.9097145478
 C       -11.8730627700        2.6587457399       -1.0946205714
 C       -12.6240347330        3.9147694129       -0.4841923464
 O       -13.2909586328        4.6391964433       -1.1449182839
 C       -12.4482513080        4.3412679843        1.0692811274
 C       -13.2631394112        5.6346823766        1.5326859504
 C       -12.4115461995        6.9550857542        1.3454013412
 O       -11.2374788048        6.7413877604        1.2126059480
 C       -13.0391794429        8.4174526425        1.3733793988
 C       -13.7013554662        8.4299543856        2.7968067862
 O       -14.5606825310        7.6180250318        3.0564424761
 C       -13.1529301556        9.3486189608        3.8873185787
 C       -13.3399890317       10.8362275287        3.5780360894
 C       -14.1300493506       11.6635884752        4.8127089458
 O       -15.3101001236       11.8044364452        4.6054084251
 C       -13.4365470029       11.7963367273        6.3000433366
 C       -13.6597706765       13.3176826043        6.9389572492
 O       -12.7683130664       13.7443163579        7.6383145796
 C       -15.0376763772       14.0492022116        6.6613558091
 C       -14.3347849350       10.8370971494        7.1691520974
 C       -11.9088448768       11.5787973689        6.2374441646
 C       -11.9146943612        9.4293062128        0.9414231624
 C       -14.3410076282        8.4418576369        0.3703351273
 C       -12.7052747126        2.0757382934       -2.2562158204
 C       -11.4337034263        1.5318850958       -0.1163114222
 C        -5.2678644289        2.8542018431       -0.6654711046
 C        -5.3440488149        4.0788454570       -2.8398922627
 C        -4.8396878202       -2.6183460843       -0.0720083867
 C        -3.4131542142       -2.8877068076       -2.0979098353
 C       -11.4935686607       -2.6351068641       -2.5771664429
 C       -10.5451117368       -4.2565764368       -4.4769259653
 H       -11.3519010056       -0.3923147057       -5.6823487925
 H       -12.1973653286       -1.7805814721       -5.0527769639
 H       -10.9960352428       -2.0164774076       -6.3452082479
 H        -7.8250373348       -4.4526955873       -3.7108035602
 H        -8.7331089907       -5.1332521430       -2.2544623138
 H        -6.4002046323       -4.9529811517       -1.6920096514
 H        -6.9379983238       -3.5329320246       -0.8069521330
 H        -3.7051460325       -0.4718938661       -3.6285965474
 H        -2.4998685343       -0.2765209619       -2.3945179817
 H        -3.1322636180        1.6356464107       -3.6007902510
 H        -3.3384638937        1.9561193277       -1.9515124988
 H        -8.3341774413        4.9746480009       -2.3321778962
 H        -7.3117391537        4.8804310439       -1.0279422052
 H        -9.8025780354        5.0092705890       -0.4434268725
 H        -9.1652324680        3.3555627779        0.0256853388
 H       -11.4452243649        4.6956286981        1.2607595535
 H       -12.5927311737        3.4189030679        1.6370773727
 H       -13.6275104019        5.7112864219        2.5987276317
 H       -14.0805131486        5.6391401970        0.9042345750
 H       -12.0600624495        9.0470335123        3.8096130234
 H       -13.5882585692        9.0485406217        4.9410126332
 H       -13.9894822161       10.8920708360        2.7159156150
 H       -12.3001340378       11.1089642165        3.3010629544
 H       -15.0765192317       14.3022571351        5.5958557938
 H       -14.9579999422       14.9837315464        7.2365183754
 H       -15.8812206627       13.4564395753        6.9512048870
 H       -14.3685102644       11.2332444928        8.1583580389
 H       -13.9598314360        9.7403129193        7.3766790053
 H       -15.3783447628       10.9568672257        6.7696157018
 H       -11.6024419386       11.8453316433        7.2450352081
 H       -11.4490400826       12.1067439352        5.4786366604
 H       -11.6352876265       10.5631387762        6.0198327575
 H       -11.9247752472        9.5040805903       -0.1351036745
 H       -10.9129684911        9.1138848480        1.2773669552
 H       -12.0124592421       10.4160787288        1.3293294021
 H       -14.9204089918        9.3464377256        0.4927334002
 H       -14.9978369105        7.6786325247        0.2936635728
 H       -13.8444805994        8.5603854171       -0.4979314701
 H       -11.9557658555        1.5496952838       -2.8399340015
 H       -13.0687997857        2.8097425156       -2.8545019134
 H       -13.4953508810        1.4656916737       -1.8772216080
 H       -12.2877630660        1.2577563653        0.5070595080
 H       -10.5663099827        1.9070527615        0.4282978507
 H       -10.9826494612        0.7605977243       -0.7565418007
 H        -5.4175896496        3.8278206728       -0.1112788123
 H        -4.2743155478        2.8526103410       -0.7889962073
 H        -5.5746951293        2.0647692303       -0.0779294992
 H        -5.4863312135        4.0368827164       -3.8361789657
 H        -4.3144548591        4.2325483905       -2.7286756688
 H        -5.7746618580        5.0443285457       -2.5461879152
 H        -4.2187355917       -1.9037830227        0.5138858137
 H        -4.5429995284       -3.6630495779        0.0336893901
 H        -5.8801888028       -2.4180213171        0.1462289732
 H        -3.5513243446       -3.9966582053       -2.0128525131
 H        -2.4208901652       -2.6454211688       -1.6933064638
 H        -3.2823893765       -2.7087353924       -3.1860831254
 H       -11.1157786591       -2.5448843666       -1.5178820159
 H       -12.3601602721       -3.3705568803       -2.5248494946
 H       -12.0541025499       -1.6630221839       -2.8504691197
 H       -11.3004842548       -4.9177982949       -4.0804227649
 H        -9.5810793769       -4.7125251529       -4.5932498232
 H       -10.8713952417       -4.1164422671       -5.4599930865
 Na       -7.4806820164       -0.4991121827       -2.6403614595
