117

 C        -6.1430571273       -2.1017221840        9.3038050965
 C        -7.3083120089       -2.0142076599        8.4274381222
 O        -8.2605719607       -1.2629287465        8.6620784305
 C        -7.1057250168       -2.6366369909        7.0440731717
 C        -6.3943599519       -1.3220786589        6.4101440851
 O        -5.2347461357       -1.1816932419        6.5851128405
 C        -7.2158201878       -0.2357712477        5.6333914469
 C        -6.4010143181        0.9590951516        5.2238432803
 C        -7.1920519816        2.2835517986        5.0520250740
 O        -8.3333881802        2.5237263171        5.3578520946
 C        -6.3255547881        3.5069598551        4.5462365755
 C        -6.0504411281        3.3589902496        3.0128720077
 O        -5.2741430934        2.5648467961        2.5509601046
 C        -6.9154240925        4.2216453119        2.1020815169
 C        -6.7268684470        4.0256875422        0.6146893366
 C        -8.0824089071        3.6466472067       -0.1415944992
 O        -8.4891943487        4.4123644683       -0.9702908041
 C        -8.8129110003        2.2574404472        0.1736394177
 C        -9.9900015731        2.5562411177        1.1744397516
 O        -9.6826209472        3.1390104721        2.2012156774
 C       -11.4750928302        2.3473629254        0.7027551406
 C       -12.4615751744        3.4919677732        1.0806010061
 C       -12.3526212177        4.5532567863        0.0583891949
 O       -11.2452685900        5.0216941773       -0.2588540558
 C       -13.6594150428        5.0694368202       -0.8477725092
 C       -13.3664949607        4.6868789347       -2.4111203315
 O       -12.3800253374        4.8105064140       -3.1014357485
 C       -14.6476985245        4.0850789375       -3.0762353853
 C       -14.8558146079        4.7376870334       -4.4762245854
 C       -14.7734971246        6.2506898605       -4.3975122995
 O       -15.0258677842        6.8894295183       -3.4083252354
 C       -14.3304275910        7.0962808219       -5.6594629690
 C       -12.7500539131        6.8642363406       -5.8272930669
 O       -12.3027210685        5.7388899124       -5.7778836021
 C       -11.8729745474        8.1895349246       -5.6739584177
 C       -10.4670832199        8.0100334595       -5.9789976057
 C        -9.7379615600        7.0456792083       -4.8210558736
 O       -10.2786854034        6.8594912416       -3.7418779390
 C        -8.4275519181        6.2261665695       -5.2262788899
 C        -8.8597172669        4.7731258914       -5.5296717815
 O        -9.2052038761        3.9570525632       -4.6763202952
 C        -8.7364476581        4.2490173185       -6.9228892340
 C        -7.7227818443        6.8262990659       -6.5194072670
 C        -7.5183935135        6.2527568575       -3.9406093099
 C       -14.8965496573        6.5119874064       -6.9826082553
 C       -14.8433236885        8.5521560773       -5.4869278273
 C       -14.9671146644        4.6200136926       -0.2051234269
 C       -13.6372457830        6.6022253664       -0.8805954443
 C        -9.2571733334        1.7230218324       -1.2209480692
 C        -7.9364070494        1.2771772266        0.9021214946
 C        -7.1803840660        4.8351325657        4.8568479780
 C        -5.0257614479        3.6056699865        5.2502956432
 C        -6.1926344109       -3.8009302333        7.0996351256
 C        -8.4401674631       -3.0967944229        6.4830361588
 H        -6.1157256627       -1.2981317665       10.0373384556
 H        -5.2188125008       -2.1853174293        8.7715698361
 H        -6.2852875838       -2.9860841211       10.0413872373
 H        -8.0134550294        0.1470509477        6.4041137312
 H        -7.8127572065       -0.6875186248        4.8674322169
 H        -5.7918194969        0.7459555928        4.3088747326
 H        -5.5846488307        1.0198323596        5.9728448513
 H        -6.7428417050        5.2916376272        2.2915340471
 H        -7.9311335085        3.9833046769        2.4257225490
 H        -5.9998650076        3.1515797630        0.4172174776
 H        -6.2891420091        4.9027487127        0.1366853876
 H       -11.8956667612        1.4942823853        1.2283984826
 H       -11.5710199823        2.3085424719       -0.3932016908
 H       -12.0004319626        3.9214766348        2.0158817048
 H       -13.5201965168        3.1027377218        1.2617543593
 H       -15.4933485526        4.1002674859       -2.4298090803
 H       -14.3865695846        3.0041687344       -3.1419096414
 H       -15.8106356474        4.4754722904       -4.9353215623
 H       -14.0985942854        4.3723074024       -5.2090251352
 H       -12.0299145490        8.5705210075       -4.6458023496
 H       -12.4261030396        8.8913276580       -6.2956188007
 H        -9.8899209499        8.8610379743       -6.1971312140
 H       -10.3138928019        7.4015436505       -6.9014825912
 H        -9.0791923334        4.9837619953       -7.6408339254
 H        -9.1904231185        3.2182947861       -6.8165603378
 H        -7.7552633731        4.0316880847       -7.1563964028
 H        -7.8163413093        7.9253284959       -6.5335086762
 H        -8.1814851717        6.6002293523       -7.5000282695
 H        -6.6994011087        6.4823131739       -6.6073272787
 H        -8.0953650189        6.1785425876       -2.9526145557
 H        -7.1224632992        7.2856055073       -3.7774445820
 H        -6.8199289091        5.4849501508       -4.1440877262
 H       -14.2089868441        5.6978410377       -7.3188936841
 H       -14.9397479162        7.2389137462       -7.8020476182
 H       -15.9361584276        6.0615459617       -6.8129486453
 H       -14.7422812080        9.2777466255       -6.2996552947
 H       -14.4206144193        8.9868450956       -4.6355563504
 H       -15.8539311114        8.4626132030       -5.3747449321
 H       -15.1011297822        5.0705482737        0.8030546740
 H       -14.8913566489        3.5397272604       -0.1196435422
 H       -15.9881387155        4.9143314635       -0.5818837900
 H       -13.7220434409        6.9412098004        0.1240510460
 H       -14.5067979588        7.0219788089       -1.3974719952
 H       -12.6952522454        7.0129423833       -1.2924224522
 H        -9.9869936051        0.9745753451       -0.9771931551
 H        -8.2878373393        1.2718007331       -1.7131462873
 H        -9.7432173898        2.5433568319       -1.7853877656
 H        -7.4307051356        1.6352146526        1.7922989463
 H        -7.1876627011        0.7592192087        0.2369450603
 H        -8.5792760987        0.5101684127        1.2777036750
 H        -7.4362846212        4.9608389635        5.8893065508
 H        -8.1303983086        4.7692058099        4.3787389758
 H        -6.6985089417        5.7364851333        4.3835885696
 H        -5.1420860580        3.8692485608        6.3140799814
 H        -4.4634179507        4.3880323424        4.7355526676
 H        -4.2856622984        2.7820569460        5.2969432993
 H        -5.1601700144       -3.4968997966        7.1207828461
 H        -6.2841202167       -4.4570556000        6.2008963115
 H        -6.3940397297       -4.4470968830        7.9272890998
 H        -9.1997541381       -2.2644468067        6.5937300394
 H        -8.8002536701       -3.9177962798        7.1484982097
 H        -8.2502162188       -3.3696365286        5.4087434767
 Na      -10.2467212588        5.0446489464       -2.4692290345
