117

 C       -11.4217451341       -1.2502980987       -5.3211945616
 C       -10.2845828748       -1.6728560390       -4.2736593557
 O        -9.4018811878       -0.8137040872       -4.0742849357
 C       -10.4190044400       -3.0116869089       -3.3915617264
 C        -9.1524842819       -3.1473540816       -2.3964183012
 O        -8.9111122295       -2.1725379880       -1.7640460856
 C        -8.0682085529       -4.3809762482       -2.5165370299
 C        -6.7623884566       -4.0148293045       -1.7714045332
 C        -5.8845506226       -2.8632182549       -2.4114705509
 O        -6.0621031737       -2.5762325992       -3.5675484670
 C        -4.6359530092       -2.4357022224       -1.5091656317
 C        -4.7092664568       -0.8007761825       -1.6879317413
 O        -5.5005335421       -0.0631249389       -1.1095839972
 C        -3.6416092002       -0.1972275672       -2.6420882561
 C        -3.8483400867        1.3733337931       -2.7743247162
 C        -5.3069138181        1.6600694805       -2.9776488504
 O        -5.9140808628        1.0426774969       -3.8132654340
 C        -5.9054612657        2.8932143861       -2.1852588067
 C        -7.5062470995        2.9266597334       -1.9707512472
 O        -8.1850255062        1.8784795478       -2.1626601786
 C        -8.1661247068        4.1635660799       -1.3831599925
 C        -9.5624329861        3.9374889190       -0.7327200380
 C       -10.6372225806        3.4137368216       -1.7490891219
 O       -10.4642736774        3.7005221855       -2.9029836630
 C       -11.7869953255        2.6951906210       -1.1241753234
 C       -12.6570578157        3.9386162588       -0.2609905072
 O       -13.1608287387        4.6580371452       -1.1428543511
 C       -12.4010279047        4.3919907171        1.1313357835
 C       -13.2196967858        5.6723853876        1.4487692162
 C       -12.3506533700        6.9378820839        1.2541156079
 O       -11.1452702674        6.9331136066        1.1461110952
 C       -13.0909661239        8.3010792547        1.2584160760
 C       -13.6476708631        8.4748064716        2.7417988339
 O       -14.5750046692        7.7645076398        3.0953191808
 C       -12.9898961705        9.4499346460        3.8376233061
 C       -13.3266178704       11.0312348479        3.6154348350
 C       -14.1456288104       11.5300853218        4.7500999047
 O       -15.2406250896       12.0510341676        4.5236727213
 C       -13.4162830455       11.8154297979        6.1788160029
 C       -13.6078490124       13.3389168695        6.8058276913
 O       -12.8216564156       13.6986919587        7.5777197391
 C       -14.8330449162       14.0205569510        6.4856724100
 C       -14.2624429944       10.9427542321        7.1554969806
 C       -11.9800562312       11.3524802528        6.1390074625
 C       -12.1414100237        9.3575135406        0.9437731755
 C       -14.3386245674        8.5190298939        0.4098397280
 C       -12.6756963458        2.1012060778       -2.2709409800
 C       -11.5346006004        1.3756330067       -0.2281408470
 C        -5.2892041387        3.0067770801       -0.5138453794
 C        -5.3484263275        4.2256666213       -2.7887226939
 C        -4.7656683717       -2.7308099448        0.0710139735
 C        -3.2741504347       -3.1153663952       -1.9477684726
 C       -11.7332240454       -2.6097397410       -2.4990410616
 C       -10.4533131407       -4.1953852875       -4.3893766170
 H       -11.5224989880       -0.2067224256       -5.3776440843
 H       -12.4066781211       -1.5835053106       -5.0763370506
 H       -11.0804297214       -1.5557915351       -6.2530366470
 H        -7.9563744662       -4.8712651047       -3.4959310448
 H        -8.5961744841       -5.0791579135       -1.9656706816
 H        -6.2103990586       -4.9137867179       -1.8387000398
 H        -6.8426448398       -3.7266665881       -0.6454970097
 H        -3.7696464091       -0.7228783599       -3.6918257930
 H        -2.5852291520       -0.4496202188       -2.3446322663
 H        -3.1781223921        1.8321681145       -3.5495569906
 H        -3.5072192084        1.8916764555       -1.8908410446
 H        -8.4325639308        4.9786119070       -2.1598698509
 H        -7.3766448866        4.8344797661       -0.8212279887
 H       -10.0165744458        4.9081900393       -0.3332977948
 H        -9.5170828778        3.2027772099       -0.0603894944
 H       -11.3485429590        4.6473875900        1.1891900926
 H       -12.5566032596        3.6040813085        1.7683359513
 H       -13.6377185579        5.7364424164        2.4333878030
 H       -14.0170213005        5.6454342491        0.7500051919
 H       -11.9080054280        9.2309495431        3.9439704364
 H       -13.5615107418        9.1850074055        4.8350025353
 H       -13.8640906731       11.1551574160        2.6161074421
 H       -12.4254568383       11.5277134861        3.5809183949
 H       -15.0454818615       14.0276945748        5.4381724549
 H       -14.6095752332       14.9951255184        6.8804009657
 H       -15.6815947603       13.5494063713        7.1024671735
 H       -13.9740367671       11.0528006280        8.2248428169
 H       -14.0721105314        9.9602792309        7.0041961404
 H       -15.3101496960       11.2602653790        7.0624604157
 H       -11.5014614051       11.9024815777        6.9201687124
 H       -11.5467454605       11.5526622045        5.1204394294
 H       -11.8176509756       10.3319755571        6.2426329143
 H       -12.1652278362        9.6152932631       -0.0795294871
 H       -11.1807712346        9.1866365285        1.2741089409
 H       -12.4558330685       10.2853581485        1.4962683575
 H       -14.6784013619        9.4351176852        0.6943981949
 H       -15.2222999125        7.8539896398        0.4637862182
 H       -14.0554317527        8.7083354908       -0.6096039728
 H       -11.9221069271        1.7286888743       -2.9510258571
 H       -13.2011123951        2.8354565297       -2.8736033552
 H       -13.2976571868        1.2947813613       -1.8189640303
 H       -12.5039457584        1.1072566157        0.2091310768
 H       -10.6996686298        1.5508848502        0.4198934054
 H       -11.0229023921        0.6772512935       -0.8951765643
 H        -5.6776833787        3.9664164293       -0.3095146123
 H        -4.2183248044        3.0695251161       -0.3011380059
 H        -5.8492142308        2.4562833253        0.2003516134
 H        -5.8290360471        4.7064828661       -3.6530755324
 H        -4.3266075331        4.2084430339       -3.1260492730
 H        -5.3979658278        4.9840952490       -2.0649202468
 H        -3.7672051395       -2.2290699554        0.2326575794
 H        -4.6237849463       -3.7655728477        0.3035789741
 H        -5.5849734679       -2.1519267995        0.5403393111
 H        -3.0619258413       -3.9024554370       -1.2492239783
 H        -2.3656330801       -2.3703654923       -1.8381883902
 H        -3.1058761293       -3.5369280398       -2.9063257785
 H       -11.2350495263       -2.3246371065       -1.5964683057
 H       -12.4697941822       -3.3667331334       -2.1497618078
 H       -12.3597691305       -1.7626474278       -2.8646430125
 H       -11.3001790048       -4.8500218499       -4.2444834889
 H        -9.4966238277       -4.6722063559       -4.3718511079
 H       -10.6016900515       -3.9134915931       -5.4489366273
 Na       -7.4854870540       -0.3834150380       -2.8099992026
