117

 C       -11.4766598937       -1.1809357929       -4.9395591846
 C       -10.2266622792       -1.5648253928       -4.2477662987
 O        -9.2188532077       -0.9356052529       -4.2968657297
 C       -10.4238995267       -2.9155007251       -3.2622625436
 C        -9.0333905541       -2.9207028713       -2.4101712190
 O        -8.6307003874       -1.9728685310       -1.6608159303
 C        -8.1987508886       -4.2314924174       -2.4485747583
 C        -6.9733556441       -4.1261067274       -1.6039211036
 C        -5.9224204335       -3.0861733022       -2.0736425737
 O        -5.9673274250       -2.6927601961       -3.2446730184
 C        -4.5840753580       -2.6930740714       -1.3311241087
 C        -4.6001021636       -1.0220835375       -1.6690938262
 O        -5.3991166866       -0.3534828171       -1.0421468575
 C        -3.6424165572       -0.2888442110       -2.7478998339
 C        -3.8002468650        1.1762398535       -2.6344365912
 C        -5.2216353045        1.7275078992       -2.8269564438
 O        -6.0135414736        1.1434049868       -3.5530554697
 C        -5.8207368629        2.8851411823       -1.9867554421
 C        -7.4387285579        2.7686032287       -2.0322526766
 O        -8.1419809821        1.8269423263       -2.1415236954
 C        -8.1964869048        4.0678043416       -1.4492554484
 C        -9.4909561227        3.6406849032       -0.7244744054
 C       -10.6543585195        3.4309793905       -1.7009057121
 O       -10.6977603083        3.9966916407       -2.8026537098
 C       -11.9693613403        2.7015678486       -1.1582425172
 C       -12.6396962355        3.9138042430       -0.5406736696
 O       -13.2241544106        4.6880313277       -1.2470587714
 C       -12.4058404142        4.2672761066        1.0753733403
 C       -13.1197625171        5.7023533914        1.4675676408
 C       -12.3027749824        7.0143644422        1.2413341319
 O       -11.1269340312        7.0485991226        0.9391887936
 C       -13.1374557089        8.3569266454        1.2917898361
 C       -13.5882460879        8.7139769576        2.8323210585
 O       -14.4931808468        8.0296454618        3.2177665307
 C       -12.8337084761        9.6988256026        3.6040820823
 C       -13.3515441009       11.0090838217        3.3928861945
 C       -14.1559533125       11.5606708613        4.6528566475
 O       -15.0935099494       12.2446062287        4.3619604249
 C       -13.4700702694       11.6374517024        6.0559569724
 C       -13.4843695387       13.1825789573        6.5760839200
 O       -12.5873687025       13.6320132628        7.3327354030
 C       -14.5259506022       14.2896194227        6.2197606849
 C       -14.3384920074       10.9859949472        7.1112467366
 C       -12.0061822711       11.2192066695        6.1683543189
 C       -12.2254835828        9.5759648493        0.7841922503
 C       -14.4335057654        8.2955046657        0.3751495727
 C       -12.9185461796        2.3108422416       -2.3060049104
 C       -11.5963131702        1.5550280971       -0.1546812709
 C        -5.3099029549        2.8536933487       -0.5047509600
 C        -5.5927771731        4.2145901467       -2.8780717599
 C        -4.8852524660       -2.7222021684        0.2396081140
 C        -3.3286902133       -3.3801208016       -1.9434056635
 C       -11.5970786198       -2.9987979278       -2.2531986316
 C       -10.7093165964       -4.0570879858       -4.3499628936
 H       -11.8937673753       -0.3184978409       -4.3278155964
 H       -12.3259464305       -1.7935076038       -4.6871563378
 H       -11.3194681474       -0.7614150106       -6.0215851744
 H        -8.1144448295       -4.3343263467       -3.5506748274
 H        -8.8899629544       -5.0770976740       -2.1684323599
 H        -6.3840415367       -5.1092198700       -1.7626548427
 H        -7.2423748722       -4.0314538022       -0.6375857803
 H        -3.9139945530       -0.5798023337       -3.6851252379
 H        -2.6109163250       -0.5648181593       -2.6047735406
 H        -3.2658409157        1.6522604095       -3.4253369561
 H        -3.1863121773        1.5370139690       -1.8008072428
 H        -8.3358608513        4.9237563388       -2.0056300709
 H        -7.5953243644        4.4950071651       -0.7153420385
 H        -9.8215501335        4.4938274328       -0.2000470129
 H        -9.2216621978        2.6709524566       -0.0710468813
 H       -11.2852136762        4.3580169018        1.1062515626
 H       -12.7472707310        3.6641749309        2.0005402587
 H       -13.6105464359        5.5957959013        2.5118209406
 H       -13.9689974549        5.7913381594        0.7309288959
 H       -11.7782841183        9.6682503138        3.4319392521
 H       -13.0354169387        9.4957624431        4.6437677174
 H       -14.0285800067       10.9715754436        2.5620510430
 H       -12.4922751399       11.6690842218        2.9353189392
 H       -14.5653737814       14.3891051274        5.1127807037
 H       -14.1781302684       15.2213239660        6.7304347985
 H       -15.4512062662       14.0470986682        6.6237627453
 H       -13.8408924825       10.6692895613        7.9447116729
 H       -14.6766030092        9.9606491158        6.6848300302
 H       -15.0560769706       11.6831694640        7.4776380508
 H       -11.6137447141       11.7238944331        7.1092943043
 H       -11.4681384045       11.5321189488        5.2937726910
 H       -11.8401995087       10.0740736865        6.2242043112
 H       -11.7112123057        9.3376167103       -0.1720918147
 H       -11.4666566970        9.8928002566        1.5696028875
 H       -12.7567291814       10.4476846695        0.5724718477
 H       -14.7916540620        9.4286752446        0.1523915282
 H       -15.2728482423        7.8095005236        0.9205651148
 H       -14.3249670300        7.9326465532       -0.6854043799
 H       -12.4086048747        1.8511518003       -3.2112356021
 H       -13.0657792295        3.3220710031       -2.6803751598
 H       -13.8532436129        1.8101661145       -1.9717378452
 H       -12.4802973431        0.9553200137       -0.0540846304
 H       -11.1776426796        1.9955680788        0.7315128130
 H       -10.6788871535        1.1049139315       -0.4245352262
 H        -5.8022115007        3.5930915681        0.3208923980
 H        -4.2387481425        2.9868506201       -0.6314997433
 H        -5.6437435850        1.8496283418       -0.0981577966
 H        -6.5200242244        4.5783554888       -3.3240518526
 H        -4.9217119558        4.2520886082       -3.7698776584
 H        -5.3107423124        5.1736555753       -2.2606667110
 H        -3.9901826361       -2.7931575692        0.8139686165
 H        -5.3292485430       -3.7468618774        0.4243745408
 H        -5.5261896721       -1.8683889499        0.3498327865
 H        -2.8002110221       -4.0144866542       -1.2283691774
 H        -2.6420050710       -2.6771931634       -2.2412243906
 H        -3.3959852174       -4.0470928352       -2.8153708560
 H       -11.9641061255       -2.1657736957       -1.7028914909
 H       -11.3292709522       -3.6074111845       -1.4088349054
 H       -12.3868996462       -3.3535684298       -2.8675230247
 H       -11.4450823126       -4.8704727156       -4.0772215962
 H        -9.7863229502       -4.4515062237       -4.8528625527
 H       -11.2392647850       -3.4942986399       -5.1368866311
 Na       -7.6041467438       -0.2456201524       -3.0422091931
