117

 C       -11.8173907410       -0.9303980788       -4.4759518946
 C       -10.3870703381       -1.5915239633       -4.1728430054
 O        -9.3643401361       -1.0902898392       -4.6474771971
 C       -10.2791478512       -2.9299608274       -3.1716707486
 C        -8.9202885988       -2.8185456072       -2.5093424271
 O        -8.6246042735       -1.9097284908       -1.8210789619
 C        -8.0837615667       -4.2211081825       -2.4453236304
 C        -6.9393760110       -4.0085841347       -1.4718448092
 C        -5.9866123555       -3.0354051094       -2.0435017031
 O        -6.2394502316       -2.6571176148       -3.1480340264
 C        -4.7633229667       -2.6752818466       -1.2376251884
 C        -4.6790177501       -1.1394548084       -1.5220145690
 O        -5.5065448559       -0.4498694763       -0.9752700315
 C        -3.8414841137       -0.5659786615       -2.6253451911
 C        -3.8677957173        0.9856749190       -2.5118264592
 C        -5.2897550616        1.4361996471       -2.8255422569
 O        -5.8101843165        1.1204659671       -3.8834911992
 C        -5.7517091575        2.7604322012       -1.9684028902
 C        -7.4542879800        2.7092382018       -1.9186724439
 O        -7.9544168888        1.5726631774       -1.9885839667
 C        -8.2538934538        3.8747791515       -1.4560273629
 C        -9.5705735538        3.6258052248       -0.6603380428
 C       -10.7511098685        3.5868979004       -1.6908249539
 O       -10.6743356004        4.0406016603       -2.7703701263
 C       -12.1178180703        3.0024694429       -1.1574624240
 C       -12.8751099916        4.3298844453       -0.5631666158
 O       -13.6594928479        5.0263332520       -1.1667078972
 C       -12.4904668283        4.4985393377        0.9552180781
 C       -13.0889109743        5.7681912179        1.5657523010
 C       -12.3596046104        7.0135321772        1.1160208395
 O       -11.1700032058        6.8544586879        0.8407151108
 C       -13.1742742760        8.3595533269        1.0805396261
 C       -13.5692503373        8.7354623629        2.6631958961
 O       -14.4157609598        8.0444757644        3.2439035759
 C       -12.6364172790        9.6339565417        3.5889823842
 C       -13.2432515359       11.2036311361        3.4035753806
 C       -14.0427535418       11.7751154651        4.5390786315
 O       -15.1683533086       12.2174077929        4.3827534990
 C       -13.4990540352       11.8708408187        5.9450493151
 C       -13.2277375460       13.3303021167        6.5298471611
 O       -12.2167471219       13.6251537350        7.1436478658
 C       -14.1637494723       14.4217161023        6.0238460608
 C       -14.5334356370       11.0771417657        6.7225953768
 C       -12.1274520280       11.1262977228        6.1653322317
 C       -12.2406799848        9.4707638725        0.3601975949
 C       -14.5429641093        8.0394873431        0.3417352361
 C       -12.7857916443        2.2744341649       -2.3077230166
 C       -11.8307291876        1.9144032726       -0.0857004101
 C        -5.1348459353        2.9374817726       -0.5277752039
 C        -5.4443788554        3.9942961832       -2.6796380074
 C        -4.7549471538       -2.8809334669        0.2977869254
 C        -3.5187441549       -3.6235989775       -1.7052259652
 C       -11.3708333917       -2.7919466705       -1.9764875999
 C       -10.3088377578       -4.0517235177       -4.1827831087
 H       -12.2784224210       -0.5138613780       -3.5966311927
 H       -12.6554890310       -1.6337861395       -4.6475376624
 H       -11.7185069956       -0.2000762101       -5.1789612558
 H        -7.8744353302       -4.5979909196       -3.4560621599
 H        -8.8388485488       -4.8960762035       -2.0084038309
 H        -6.4064174709       -4.9008956009       -1.3368706633
 H        -7.4849414572       -3.6582854070       -0.4709844477
 H        -4.2997310020       -0.8807752117       -3.6536031851
 H        -2.8582863887       -1.0370563723       -2.4887985938
 H        -3.0925058476        1.6227715125       -3.0145683422
 H        -3.6460472759        1.1703897996       -1.4629926743
 H        -8.2766506643        4.5374063663       -2.3919096130
 H        -7.5885913510        4.5624847722       -0.8480734896
 H        -9.6881007720        4.5209670669       -0.0124089289
 H        -9.4526129713        2.7524851893       -0.1044012027
 H       -11.4098411673        4.4050455432        1.1604177547
 H       -12.9906949328        3.7359654857        1.5026412028
 H       -12.9520893019        5.6190388769        2.6015683076
 H       -14.1658976468        5.8259444855        1.4242848530
 H       -11.5892141273        9.7849726513        3.1423666272
 H       -12.5593199358        9.3238291025        4.6230945658
 H       -13.6641096471       11.2379267401        2.3448781439
 H       -12.4967565914       11.9283193822        3.3037812578
 H       -13.6545528778       14.6957960924        5.1295655231
 H       -14.3535004520       15.2042746331        6.7084103660
 H       -15.1465506454       13.9522053820        5.7458474035
 H       -14.3319964457       11.0490517399        7.8793148187
 H       -14.5188281863       10.0964814899        6.3469625829
 H       -15.4801767557       11.6522816337        6.6504650361
 H       -11.6483939597       11.3495014961        7.0788768585
 H       -11.4187883961       11.4245897767        5.3277780465
 H       -12.3211467754       10.0785251467        6.1802900674
 H       -11.9334903678        9.1785567096       -0.6362612498
 H       -11.3730177349        9.7742620246        0.8961846389
 H       -12.8494781896       10.4152218293        0.1814120799
 H       -15.1000083405        8.8153881432       -0.0582928929
 H       -15.1098369852        7.5795085475        1.0774194895
 H       -14.3310298752        7.3355841067       -0.3968287506
 H       -12.5365039005        1.2924703191       -2.3389253324
 H       -12.6637929712        2.7175929604       -3.3111465336
 H       -13.7639849037        2.2743961167       -1.9414902507
 H       -12.8180880357        1.4972097389        0.1044714083
 H       -11.3439120782        2.3156108653        0.7917457282
 H       -11.1260257732        1.1573143436       -0.4474470483
 H        -5.7888457931        3.4251649915       -0.0079592283
 H        -4.2460713685        3.5297577108       -0.6223204702
 H        -5.1289298538        2.0703370675        0.0376966483
 H        -5.8701502923        3.9666451425       -3.6921694979
 H        -4.4020867821        4.0187432540       -2.8820368256
 H        -5.6804372968        4.9042247934       -2.2754438189
 H        -3.8591985759       -2.4596592387        0.7506517198
 H        -4.5646070108       -3.8836102276        0.5660489291
 H        -5.6798924184       -2.3577590654        0.5500151749
 H        -3.3674291164       -4.5596475900       -1.1833579876
 H        -2.5189825754       -3.1916938275       -1.9686802093
 H        -3.7900354553       -4.0335440012       -2.6927824422
 H       -11.8318724570       -1.7648699483       -1.8805051964
 H       -10.8831189623       -2.7785307502       -0.9693664873
 H       -12.2696836694       -3.4002782619       -2.1942234295
 H        -9.7221193630       -4.7915923986       -3.7289585274
 H        -9.8535071514       -3.8312465537       -5.1264244413
 H       -11.3294108348       -4.4342861204       -4.3492064049
 Na       -7.4746849467       -0.4608909436       -2.9790746758
