117

 C        -5.9233954665       -1.9459597603        9.4033566866
 C        -7.2398275364       -1.7838294393        8.5063861460
 O        -8.1981174730       -1.1005051169        8.7106313521
 C        -7.1375876201       -2.5866775795        7.0413350700
 C        -6.5116015081       -1.3503939622        6.3754278125
 O        -5.2890495009       -1.2363227949        6.6315848649
 C        -7.3446954332       -0.2468408087        5.6926354779
 C        -6.4476681494        0.9711686649        5.3252057451
 C        -7.1122748588        2.3085722385        5.0228961625
 O        -8.2719972841        2.4931438433        5.4280192410
 C        -6.2661256026        3.5679293186        4.4466943520
 C        -6.0774720307        3.3873294471        2.9204951142
 O        -5.2769959610        2.5859164302        2.4870719346
 C        -6.9980090405        4.2802913401        1.9707550448
 C        -6.6110661987        4.1241286189        0.5282659364
 C        -7.8796631862        3.6519603709       -0.1974076601
 O        -8.3851092204        4.4884364329       -0.9207140632
 C        -8.6889059278        2.3479643773        0.1360317671
 C        -9.9890982822        2.8135087078        1.0408164859
 O        -9.8239899158        3.1277476847        2.1727937997
 C       -11.3756985624        2.4299647650        0.6040289650
 C       -12.4321968703        3.5169411425        1.1431125946
 C       -12.3696036813        4.5518810022        0.0209850002
 O       -11.2990077482        4.9715373488       -0.3342694838
 C       -13.6337558015        4.9680740958       -0.7884437763
 C       -13.4928665257        4.5064865430       -2.2767859397
 O       -12.4977685696        4.8365759717       -2.9065815096
 C       -14.6918790389        3.9599745227       -3.2137258471
 C       -14.7668994866        4.7697419049       -4.4644268042
 C       -14.8173694063        6.2844005060       -4.3818021555
 O       -15.2916301943        6.9004163087       -3.4585614480
 C       -14.4393932713        7.1083166871       -5.6939151771
 C       -12.9117109592        6.9456386008       -5.7861545620
 O       -12.4814135462        5.8390106951       -5.9953339867
 C       -11.8315322219        8.0912160176       -5.6753307991
 C       -10.3612816891        7.7962536443       -5.9255623934
 C        -9.7553821498        6.8678130000       -4.8996204512
 O       -10.3322170476        6.8506324220       -3.8197414113
 C        -8.3865716517        6.1785501083       -5.2542802475
 C        -8.7882344257        4.5848971307       -5.5192532768
 O        -9.2261123862        4.0170914331       -4.4914978068
 C        -8.7678364573        4.0152215699       -7.0098001637
 C        -7.7101741130        6.8187057256       -6.4348139581
 C        -7.3863703973        6.1976756074       -4.0813119972
 C       -15.1470624449        6.4592350996       -6.9772885115
 C       -14.8500258014        8.5710286617       -5.4553766752
 C       -14.9211000711        4.5433840429       -0.1191581733
 C       -13.6759710017        6.5463031496       -0.8852834961
 C        -9.2120640323        1.7577456341       -1.1862875711
 C        -7.7696672883        1.2811322048        0.9250789195
 C        -7.1051732363        4.7870728000        4.8968938213
 C        -4.8872938002        3.7135412321        5.0937393951
 C        -6.1135557717       -3.6910399172        6.9885847186
 C        -8.6194926587       -3.0660865449        6.7246494495
 H        -5.7374947320       -1.1298008812       10.1218212146
 H        -5.0597650029       -2.1829315570        8.7974345455
 H        -6.0854708398       -2.7347776134       10.1424407588
 H        -8.2632266200        0.0499654648        6.0982744249
 H        -7.6049335056       -0.7559005590        4.7838234487
 H        -5.8530079747        0.6339041049        4.4651240543
 H        -5.6831518694        1.0957910960        6.1143764841
 H        -6.9244709305        5.3094802555        2.1798979770
 H        -8.0362951594        3.9616760446        2.2396700373
 H        -5.7731864178        3.3575967219        0.5154043239
 H        -6.2361426040        5.0628825563        0.0454819587
 H       -11.6267995346        1.4787811981        1.1490825117
 H       -11.6180550786        2.4000105970       -0.4073991762
 H       -12.0356161908        4.0433203393        2.0491942731
 H       -13.3764941128        3.0669553174        1.3118124742
 H       -15.5935086301        4.0127093201       -2.6766408258
 H       -14.5463400427        2.9242207267       -3.4717519248
 H       -15.7401979075        4.4825292219       -4.9988630692
 H       -13.9609831821        4.3832903685       -5.2371059947
 H       -12.0653863214        8.5849597364       -4.7686627619
 H       -12.2305405018        8.7612007848       -6.4271616982
 H        -9.6165628593        8.5996530605       -5.8218550661
 H       -10.1646484497        7.4818050644       -6.9287351005
 H        -9.4878941266        4.5542842935       -7.6279757911
 H        -8.7974743723        2.9661978487       -6.8509523617
 H        -7.7582814054        4.1897148676       -7.4702064558
 H        -7.6426699626        7.8755287550       -6.4460858582
 H        -8.2790374722        6.5901701474       -7.3039948150
 H        -6.7506060965        6.3349503225       -6.6061186748
 H        -7.8432009276        6.3595848332       -3.0600019535
 H        -6.8972669169        7.1081884181       -4.1739927147
 H        -6.6437489821        5.3945980655       -4.2449257572
 H       -14.6872512774        5.5462279177       -7.3408781237
 H       -15.2550642343        7.1813898249       -7.7954697807
 H       -16.1998156272        6.2307575421       -6.5993799298
 H       -14.6703595137        9.2862904433       -6.1716169111
 H       -14.2480471527        8.8836047784       -4.5454041033
 H       -15.9298244955        8.6334750593       -5.2437132250
 H       -15.1266174882        5.0286772693        0.8479486089
 H       -15.1184421775        3.4736654527       -0.0515875035
 H       -15.7758986341        5.0064204073       -0.6908427603
 H       -13.7045147076        6.9604230304        0.0597827473
 H       -14.5104724685        6.8729281732       -1.4201514164
 H       -12.7927990906        6.8808081100       -1.3682096671
 H       -10.0796548686        1.1209492609       -0.8086949180
 H        -8.4187545277        1.1330692770       -1.5291342234
 H        -9.5440193755        2.5025927024       -1.8960728055
 H        -7.0717605961        1.7342381220        1.6619033262
 H        -7.1020379868        0.7387743870        0.1833152624
 H        -8.3424087611        0.5375836867        1.4880413330
 H        -7.3954583478        4.6068951755        5.9102377097
 H        -8.0857664705        4.9323034641        4.3767726203
 H        -6.5488933533        5.6553493792        4.7958786257
 H        -4.9685870757        3.7202816749        6.1523021507
 H        -4.2610042632        4.5673129581        4.7497798849
 H        -4.2357618405        2.8975086875        4.9190061626
 H        -5.0817539168       -3.3321689825        6.8760125505
 H        -6.3219643154       -4.3404412150        6.1678844040
 H        -6.1395993816       -4.3440354771        7.8705397767
 H        -9.3491838105       -2.5726026424        7.3959240508
 H        -8.6905586278       -4.2189042036        6.8485918532
 H        -8.7707913237       -2.7218965405        5.6813091616
 Na      -10.1960441904        4.8821540123       -2.3277631478
