117

 C       -12.1043104876       -1.1157929357       -3.9486938320
 C       -10.6549859750       -1.3960802694       -3.4318557321
 O        -9.6218095744       -0.7237424578       -3.6120436141
 C       -10.4731241900       -2.8586566384       -2.9043238017
 C        -9.2048701787       -2.8488037596       -1.9919573172
 O        -8.9107348779       -1.9992429171       -1.2079150747
 C        -8.4615504103       -4.1690861505       -2.0405461376
 C        -7.1797113452       -4.1917299340       -1.2019520129
 C        -6.1494582496       -3.3211413569       -1.8022248083
 O        -6.2964074155       -2.7768142886       -2.8865063434
 C        -4.8979936501       -2.8527182314       -0.9943510194
 C        -4.6672104034       -1.3035933058       -1.4063530277
 O        -5.5684544938       -0.5528406249       -0.9683811318
 C        -3.5578349158       -0.7533901898       -2.2527615486
 C        -3.6042056561        0.7432110252       -2.1266815989
 C        -5.1282119444        1.2878543174       -2.5112403689
 O        -5.4778098710        0.7661964002       -3.5306020246
 C        -5.7982961751        2.4348701097       -1.8371557921
 C        -7.4483443689        2.2459896871       -1.8463705293
 O        -8.1265129034        1.2880708765       -2.1337274114
 C        -8.2342915039        3.4781692582       -1.3318756092
 C        -9.6300986068        3.0251811295       -0.6978266520
 C       -10.8519118713        3.6711864970       -1.6546218511
 O       -10.6418954365        4.2975629290       -2.6765195966
 C       -12.3129906735        3.2946522526       -1.2213271928
 C       -12.9280014465        4.6230292659       -0.5093421985
 O       -13.6813011494        5.3777107514       -1.0531340880
 C       -12.4581167638        4.6685935297        0.9590820468
 C       -13.0110281635        5.8944668662        1.7109827315
 C       -12.4697152367        7.1829705779        0.8911727917
 O       -11.3933036875        7.0632630343        0.3584285009
 C       -13.3445794801        8.5386443570        0.8983558747
 C       -13.4364302267        9.2758134838        2.3465856092
 O       -14.4466461367        9.4802151188        2.9433987483
 C       -12.1623877988        9.6002473789        2.9667332244
 C       -12.1488781992       11.2146077710        3.2753493347
 C       -13.3346339649       11.5687275635        4.1257123356
 O       -14.3782887408       11.7778433480        3.6465883210
 C       -13.3604475345       11.9503993604        5.5837429836
 C       -12.6446159451       13.3661630812        5.5285005841
 O       -11.3884727774       13.3430679759        5.5469434654
 C       -13.6468564953       14.5624048873        5.1881942042
 C       -14.7709101831       11.9892203432        6.2155075807
 C       -12.3792435119       10.9048699627        6.3634067846
 C       -12.7459804021        9.5188954611       -0.0304521270
 C       -14.7023560818        8.0659152861        0.4049070580
 C       -13.0152197950        2.9912464123       -2.5837066128
 C       -12.3276647332        2.0873876494       -0.2650803075
 C        -5.2384959845        2.7288769462       -0.5099871331
 C        -5.5752573786        3.7495454873       -2.7645087944
 C        -4.8076864426       -3.0821165447        0.5307424052
 C        -3.6128676916       -3.6367647974       -1.5233010021
 C       -11.5175543236       -3.1330045309       -1.7664575837
 C       -10.6049426743       -3.8970865522       -4.0697622808
 H       -12.5547744636       -0.3525006229       -3.2486072512
 H       -12.6714294150       -2.0747221334       -3.9128729949
 H       -12.2457500907       -0.7325460902       -5.0749067182
 H        -8.2063319734       -4.2387668218       -3.1675723569
 H        -9.2473738086       -4.9957823982       -1.7285699885
 H        -6.8797819088       -5.2600571012       -1.2723740331
 H        -7.2612784015       -3.9476095661       -0.1313721135
 H        -3.7335333883       -0.9637166687       -3.2814060142
 H        -2.6511669070       -1.2022906402       -2.0158356588
 H        -3.0833895450        1.1825569370       -2.9537296221
 H        -3.1596036808        0.9580335773       -1.1438996020
 H        -8.3513992011        4.1715550749       -2.0842000607
 H        -7.6416087768        3.9647746288       -0.6563528075
 H        -9.6771105679        3.2569132702        0.2945316382
 H        -9.6634974168        1.8554730052       -0.7189035232
 H       -11.3257320220        4.4797680975        0.9339566735
 H       -12.7528940882        3.7745458097        1.6082852997
 H       -12.6098732714        5.7594383520        2.7102590950
 H       -14.1792165143        5.8986860384        1.8771326553
 H       -11.1593840673        9.3788862824        2.4097748054
 H       -12.2476433183        9.0791063451        3.9292885601
 H       -12.2479473341       11.7864422888        2.2744645056
 H       -11.2170811169       11.5093156417        3.7571968486
 H       -13.1722990623       15.5633820248        5.3930096069
 H       -14.6601438655       14.4523249999        5.6030014272
 H       -13.7295700435       14.4128068511        4.1219726740
 H       -14.6014735844       12.3118385864        7.1949769597
 H       -15.3664354811       10.9573466908        6.2191622203
 H       -15.4769673191       12.5596272823        5.6164811785
 H       -11.9735598966       11.4410348415        7.1985014614
 H       -11.6038271819       10.6407840871        5.6439371344
 H       -12.9553067541        9.9091820799        6.5722318061
 H       -12.6863461410        9.0133274826       -1.0144676575
 H       -11.7312548721        9.8418143754        0.2681714402
 H       -13.3108077616       10.4067046618       -0.1322485211
 H       -15.4416737045        8.8939303431        0.1940029099
 H       -15.0931912068        7.4131468525        1.2403711089
 H       -14.6515035728        7.3255388123       -0.4126759356
 H       -13.1205079702        1.8763711813       -2.7247921163
 H       -12.5482420272        3.5019636142       -3.4484539236
 H       -14.0031260837        3.5472602483       -2.5271543531
 H       -13.2643881080        2.0772668055        0.2777091496
 H       -11.7379395320        2.0866383202        0.6924738821
 H       -12.3768936279        1.1311127456       -0.8202939969
 H        -5.6232337906        3.7813545002       -0.0933019081
 H        -4.1884712859        2.8123539169       -0.5667328161
 H        -5.3354936698        1.9143788435        0.1687156465
 H        -5.8026134008        3.5805237072       -3.8284998408
 H        -4.5469079649        4.1549798655       -2.5557035483
 H        -6.1644636386        4.6243905490       -2.2870646183
 H        -3.8469537870       -2.9513193349        0.8241353077
 H        -5.4474404560       -3.8716237352        0.7945679143
 H        -5.2368705262       -2.1754474323        0.8944437122
 H        -3.5900427492       -4.7092140925       -1.2510508683
 H        -2.6756068516       -3.3613093244       -1.2814577864
 H        -3.7101684269       -3.6121851280       -2.6225263612
 H       -12.4297556562       -2.8255388781       -2.2048152309
 H       -11.2579969681       -2.6110037720       -0.8923164959
 H       -11.7747762140       -4.1490014895       -1.6835051426
 H       -10.5717381393       -3.2328767937       -4.9272291892
 H       -11.5734235122       -4.4290097005       -3.9815798748
 H        -9.7661851011       -4.6104916786       -4.1500276181
 Na       -7.3914158681       -0.8287673134       -2.5850988728
