117

 C       -12.0889900101       -1.1310908542       -3.7198571554
 C       -10.7150785451       -1.5178223170       -3.1048855999
 O        -9.7504665706       -0.8566710642       -3.1225954315
 C       -10.6322565039       -3.0839713903       -2.6322018442
 C        -9.4197068626       -3.2432895241       -1.7741455222
 O        -9.2733365014       -2.3134502702       -0.9790164184
 C        -8.4635681862       -4.5098941652       -1.8116683313
 C        -7.1255624490       -4.4589478735       -0.9748331100
 C        -6.1329797383       -3.4744118512       -1.6988888982
 O        -6.2750812358       -3.0654977337       -2.8611892375
 C        -4.9061064058       -2.9542863366       -0.9463556268
 C        -4.8769119323       -1.4290374846       -1.0767750012
 O        -5.7382177997       -0.7715686767       -0.5416625764
 C        -3.7384461839       -0.7936452502       -1.8748939266
 C        -3.8612997371        0.7777618207       -1.9875325462
 C        -5.2703580214        1.2042118212       -2.2357393114
 O        -5.8707185082        0.5207056754       -3.1184112423
 C        -5.9592225340        2.5786162471       -1.7255781627
 C        -7.4573910690        2.3896575735       -1.5717459945
 O        -8.0436943580        1.4051687519       -1.9733046249
 C        -8.3339797968        3.5886254941       -1.1055529773
 C        -9.7091028202        3.2000053277       -0.7517693460
 C       -10.8421267802        3.6939692166       -1.5525763881
 O       -10.6960582635        4.5038011171       -2.4875912760
 C       -12.3994643655        3.2947820273       -1.2939349027
 C       -12.9168282746        4.5470914315       -0.5100345358
 O       -13.5806492838        5.4138411726       -1.0911987532
 C       -12.1701843566        4.9761446264        0.8547774683
 C       -12.7566689570        6.2569388967        1.5428600173
 C       -12.2729768571        7.6059317168        0.7894983838
 O       -11.1704366051        7.7243698484        0.3466546446
 C       -13.4422816103        8.6797808648        0.6885284213
 C       -13.4660279288        8.8699772780        2.2532969074
 O       -14.3742764512        8.3803687808        2.9038954358
 C       -12.2426144641        9.5575386503        2.9829671604
 C       -11.9742424685       10.9706617609        2.9129674046
 C       -13.0553341934       11.8608651784        3.5120054169
 O       -14.0394674885       12.1830864457        2.8088593136
 C       -12.9796511416       12.2070611570        5.0907109485
 C       -12.1957882714       13.4786424038        5.0501151104
 O       -11.0146294031       13.3553454504        4.9656419100
 C       -12.6365502474       14.9194025276        5.2388997357
 C       -14.5642166308       12.3293150889        5.3451092000
 C       -12.5196636361       11.1070986850        6.0484171517
 C       -12.9037912122        9.9567265792       -0.0188505556
 C       -14.7948487515        8.1739977681        0.1712261696
 C       -13.0213691960        3.1616357203       -2.7596886507
 C       -12.4817705585        1.8764989336       -0.5927930776
 C        -5.2295924559        3.0166543134       -0.3991046605
 C        -5.6092238256        3.8464763308       -2.6234531226
 C        -5.1111198035       -3.2445858646        0.5688418646
 C        -3.7109189871       -3.5364171119       -1.7213131015
 C       -11.8159310118       -3.4182276899       -1.6106828446
 C       -10.9050642514       -4.0593422158       -3.8253787235
 H       -12.9390210260       -1.7078155495       -3.1790386075
 H       -11.9243645666       -1.1184827050       -4.8766668659
 H       -12.4538350591       -0.1353126479       -3.5627299215
 H        -8.2582685272       -4.6934266720       -2.9524151211
 H        -9.0789132146       -5.3763394815       -1.3341254938
 H        -6.6040495928       -5.4966551719       -0.9215572976
 H        -7.3255717786       -4.2037857003        0.0285374675
 H        -3.7072050688       -1.2497817670       -2.8047886198
 H        -2.7229668620       -0.9316934427       -1.5749360149
 H        -3.2358524475        1.1003981968       -2.8105467071
 H        -3.3453950608        1.2539493532       -1.1527836125
 H        -8.5172619093        4.2239611030       -1.8986082913
 H        -7.8489555011        4.2093837954       -0.4006502002
 H        -9.9946608061        3.3920879047        0.3590089566
 H        -9.8574492168        2.1073950549       -0.7186269242
 H       -11.2481460264        5.4115665783        0.3755973978
 H       -11.8843962796        3.9570719137        1.3490003612
 H       -12.4066816848        6.4799751674        2.6027041106
 H       -13.7742716124        6.3340769836        1.5267767312
 H       -11.3829324636        9.0049657617        2.6897955001
 H       -12.2146987853        9.3239458279        4.1456630246
 H       -11.9603559473       11.3088101766        1.9294667344
 H       -11.0300818842       11.2112185108        3.5321246168
 H       -12.0627435354       15.6690371600        4.7195818678
 H       -12.3884223276       15.0581423937        6.3143003052
 H       -13.7056613473       15.0974316922        4.9491901473
 H       -14.7133521149       12.5281095519        6.4813297780
 H       -15.0702629479       11.4479629069        5.1946538289
 H       -14.9468085160       13.2324109937        4.8155301544
 H       -13.2227884095       11.3951747538        6.8754643790
 H       -11.4893661583       11.3977153574        6.3780691643
 H       -12.5350031335       10.1495837941        5.6433564055
 H       -13.0169116602        9.8694704784       -1.0732655957
 H       -11.8942141683       10.0954715503        0.3384703280
 H       -13.4775107693       10.8765077757        0.1528956699
 H       -15.5272228112        8.9820343104        0.0105971303
 H       -15.3364139074        7.4842378535        0.8408548182
 H       -14.5630605076        7.7097717434       -0.8291874406
 H       -14.1567935882        3.2068602981       -2.7928764304
 H       -12.6404174320        2.1977588879       -3.1832061006
 H       -12.6630907236        4.0738773154       -3.3115252336
 H       -13.4529701451        1.6631630668       -0.1326443503
 H       -11.6647691476        1.8057774588        0.0807927682
 H       -12.1902727902        0.9763124534       -1.0690926574
 H        -5.8730879072        3.5941760613        0.1555938861
 H        -4.2791008828        3.5971866694       -0.3800635453
 H        -4.8947108907        2.1236101821        0.1319362477
 H        -6.2715319555        3.8381832234       -3.5557997055
 H        -4.5832928883        3.6702306348       -3.0332930371
 H        -5.7053364226        4.7441994232       -1.9849238207
 H        -4.1221925533       -3.1102332666        1.0179001310
 H        -5.4042743205       -4.2946280618        0.6488700604
 H        -5.8435926327       -2.6211847545        0.9783954739
 H        -3.5298773432       -4.5014942675       -1.3067809224
 H        -2.8068623994       -2.9231245927       -1.3664393316
 H        -3.7033281535       -3.7340962100       -2.7356470061
 H       -11.6336559828       -3.0161463406       -0.6563270134
 H       -11.9065281478       -4.4860350358       -1.5353294210
 H       -12.8021443971       -3.0673065390       -1.9322722274
 H       -10.5612419610       -5.0894391055       -3.5063400110
 H       -10.4991564497       -3.8301847567       -4.8287530721
 H       -11.9727276413       -4.1845738110       -3.8937545715
 Na       -7.4522972207       -1.0602383483       -2.5177356165
