117

 C       -12.0239592562       -1.0313228952       -3.7979668827
 C       -10.7836083988       -1.7239150095       -3.1539845067
 O        -9.8583112779       -0.9616572901       -3.1360111409
 C       -10.7349368299       -3.2066802356       -2.4855823046
 C        -9.3859510554       -3.3046295533       -1.6705026338
 O        -8.9953562392       -2.4086786562       -0.8771963103
 C        -8.5494880344       -4.5707413015       -1.9123260142
 C        -7.2624030618       -4.3918220041       -1.0418839621
 C        -6.2058967868       -3.4513765643       -1.7214647878
 O        -6.4829777590       -3.1292387706       -2.8669374870
 C        -4.9441801664       -2.9581338314       -0.8716707913
 C        -5.0035072015       -1.3335028415       -1.0103626075
 O        -5.7826260351       -0.6830478281       -0.4276180084
 C        -3.8572790097       -0.7450939472       -1.8630402099
 C        -3.8493787104        0.8537099627       -1.8072914702
 C        -5.1943942517        1.2530960534       -2.3126352045
 O        -5.8156518720        0.6030587215       -3.1490219979
 C        -5.8774913576        2.4491194687       -1.6199643072
 C        -7.4920494782        2.3440518452       -1.5712383051
 O        -8.0486173321        1.3388387158       -1.8475101579
 C        -8.2161046808        3.6210132478       -1.1570354256
 C        -9.6026898858        3.2187664376       -0.7193270888
 C       -10.8220603337        3.7570340694       -1.6313869212
 O       -10.5179377691        4.4554066607       -2.5651931875
 C       -12.2619944118        3.4453952772       -1.3331556306
 C       -12.8611457555        4.7367873436       -0.5723240156
 O       -13.7838941342        5.3576078262       -0.9723033580
 C       -12.0736029181        5.0406924003        0.6985769243
 C       -12.7661582551        6.1921051171        1.4099136100
 C       -12.3577168905        7.4868028928        0.7121214545
 O       -11.2136347216        7.4826521294        0.2926600599
 C       -13.3968459203        8.7635196483        0.6821333139
 C       -13.5469154071        8.9296417118        2.2676343254
 O       -14.3698435507        8.3472058708        2.8895308502
 C       -12.2357364037        9.4592166965        3.0304338511
 C       -11.9005730659       10.9437338295        2.8663579358
 C       -13.1296559758       11.7876363276        3.3648419958
 O       -14.0279902648       12.1971257826        2.6346661505
 C       -13.1007217359       12.3079546638        4.8847519423
 C       -11.9202390047       13.6637841413        5.0437043693
 O       -10.7535412007       13.3319904582        4.9456390681
 C       -12.5727655731       14.9654479561        5.3040619339
 C       -14.6590680284       12.5439557767        5.3151962336
 C       -12.5313274385       11.2091664623        5.8012048929
 C       -12.8665050887       10.0695112675        0.0577598003
 C       -14.7397199437        8.2300611229        0.2039890674
 C       -13.0479842276        3.2491180177       -2.6356312716
 C       -12.5489599325        2.0664929579       -0.5444803038
 C        -5.2291483088        2.9136082630       -0.2792776639
 C        -5.8344991477        3.6476787963       -2.7008507927
 C        -4.9820654404       -3.3144446778        0.5925891747
 C        -3.7385970672       -3.6304875709       -1.6939745725
 C       -11.8636471712       -3.6042130583       -1.4123529969
 C       -10.8730868419       -4.0242692364       -3.8069257865
 H       -12.9273684339       -1.5128105686       -3.4937183872
 H       -11.7330318097       -0.8807858717       -4.8486920676
 H       -12.2953273281        0.0216265408       -3.4555052270
 H        -8.3431136784       -4.5406519950       -2.9566554730
 H        -8.9953173281       -5.5084098932       -1.5958636186
 H        -6.8117118821       -5.3274943635       -1.0113232274
 H        -7.5316209099       -4.2070939535        0.0861073622
 H        -3.9572586605       -1.0832374193       -2.9241865222
 H        -2.8245768025       -1.0659815404       -1.6880980498
 H        -3.0206944085        1.2906982795       -2.4192486726
 H        -3.5532956728        1.2076812536       -0.8668824309
 H        -8.4214800470        4.2216822829       -2.0198459510
 H        -7.6037768272        4.2258203073       -0.4586214430
 H        -9.8647539854        3.4181997735        0.4134934312
 H        -9.6967783502        2.1636433021       -0.6566228547
 H       -11.0101948631        5.2022465465        0.5672101876
 H       -12.2661249217        4.0534480423        1.1327296338
 H       -12.3171645221        6.3918551465        2.3338218954
 H       -13.8509320140        6.0587620831        1.5115918596
 H       -11.3852805154        8.8266734489        2.6690382031
 H       -12.1931211146        9.2099040741        4.0121680868
 H       -11.7893160104       11.3054605922        1.8254514695
 H       -11.0982207677       11.2370944832        3.4817138648
 H       -12.1571114279       15.7443734890        4.7118507261
 H       -12.3286351978       15.2439948698        6.2979547988
 H       -13.6547289382       14.9408648541        4.9892552327
 H       -14.6080780085       12.7923274124        6.4160184454
 H       -15.1894829185       11.5856326044        5.3517194138
 H       -15.1890581727       13.4123888208        4.8441592697
 H       -12.9850975161       11.4175182637        6.7466501881
 H       -11.4489723784       11.5096986450        5.8815294505
 H       -12.6526016006       10.2032907022        5.4374832716
 H       -12.9649704328       10.0817646189       -1.0124404593
 H       -11.8855788104       10.3671126270        0.3698980071
 H       -13.6578970567       10.8610807153        0.2867403019
 H       -15.5242520759        9.0342203484        0.1079640021
 H       -15.1466305284        7.5662916586        0.8539560071
 H       -14.5891814506        7.8404392688       -0.7374924725
 H       -13.9679574008        3.6725970731       -2.4400077229
 H       -13.1475613221        2.1577943742       -3.0176639437
 H       -12.6420174451        3.9880451747       -3.3400474120
 H       -13.5869965614        1.9916383219       -0.3834644120
 H       -11.9534625624        1.9659258511        0.2982600831
 H       -12.1919690135        1.1681267222       -0.9242067527
 H        -6.0200253810        3.6311060501        0.1647871943
 H        -4.3644697062        3.3952752806       -0.2030278321
 H        -5.2283330271        2.0864822384        0.3718044550
 H        -6.4367243230        3.1959079898       -3.5291069471
 H        -4.8536046313        3.6939048896       -3.1484378513
 H        -6.2235969704        4.5384819780       -2.3216422080
 H        -3.9854867461       -3.1256977390        1.0576874872
 H        -5.1904082603       -4.3645678108        0.7336452754
 H        -5.7923382490       -2.7039139127        1.0452012371
 H        -3.4792108977       -4.6252636990       -1.3344691757
 H        -2.8990314314       -2.9779806653       -1.5703670777
 H        -3.8719152519       -3.8370494994       -2.7919404185
 H       -11.5323308763       -3.2106068120       -0.4160090181
 H       -12.0354515640       -4.6966971390       -1.3237245757
 H       -12.8611311913       -3.2559494532       -1.6730339951
 H       -11.0822295215       -5.0891466932       -3.6675486460
 H        -9.8329992917       -4.0624285377       -4.1720415902
 H       -11.5548232712       -3.6172325852       -4.6016764427
 Na       -7.4443298387       -1.0377607860       -2.4419215147
