117

 C       -12.0693544553       -1.1077906792       -3.7966129871
 C       -10.8877763949       -1.6674457653       -2.9269167097
 O        -9.7351717359       -1.1905960927       -3.1191073765
 C       -10.7845414815       -3.1538885030       -2.3594216049
 C        -9.3510025063       -3.3445186927       -1.7285089590
 O        -8.8803071025       -2.5378221341       -0.9416912932
 C        -8.5701363221       -4.6438117914       -1.9180290796
 C        -7.2979673965       -4.5252374492       -1.0595906735
 C        -6.4007754047       -3.4590472780       -1.6949346887
 O        -6.5454548051       -3.0689035297       -2.8436833623
 C        -5.0873332106       -2.9237312919       -0.8713151784
 C        -4.8914806211       -1.3530050607       -1.0047777807
 O        -5.7942513427       -0.7117720915       -0.3988298855
 C        -3.8434957620       -0.7399002081       -1.8187207249
 C        -3.9010447365        0.7923365944       -1.6389961018
 C        -5.2442233784        1.2776056680       -2.2470842535
 O        -5.7312670140        0.7628753832       -3.2110696016
 C        -5.9618501333        2.4945161743       -1.6355134222
 C        -7.4964673863        2.2743559120       -1.4609207869
 O        -7.9960174469        1.1564519723       -1.6845198415
 C        -8.2789907114        3.4608341691       -1.1758835507
 C        -9.7015743947        3.2046441155       -0.6028310767
 C       -10.7659186433        3.7889978016       -1.7862029875
 O       -10.2404298731        4.4020393227       -2.6625853009
 C       -12.2313342452        3.6080906476       -1.4753637937
 C       -12.8301465339        4.6892398391       -0.5651221633
 O       -13.8742125062        5.1782618566       -0.8837308270
 C       -12.1398342573        5.0694728919        0.7567039849
 C       -12.8578788479        6.1461122601        1.3999828579
 C       -12.3673386671        7.4220116862        0.6336661318
 O       -11.2740022356        7.5799972570        0.0697193803
 C       -13.3327825231        8.6740904840        0.7943338689
 C       -13.4178275617        8.8064418527        2.3010459038
 O       -14.4024748240        8.4327306245        2.9158991586
 C       -12.2159396517        9.3657904931        3.0146119944
 C       -11.9270887887       11.0514811014        3.0075858666
 C       -13.1096641911       11.9755928391        3.2698572128
 O       -13.9293282000       12.1307096243        2.4508759375
 C       -13.0766784006       12.4675973987        4.8174394698
 C       -12.0280676958       13.5729437275        4.9468533577
 O       -10.8162909561       13.3514274417        4.9139555231
 C       -12.5021051872       14.9684921403        5.3329644098
 C       -14.4157105136       12.9271989348        5.2090271537
 C       -12.4659182246       11.2605475666        5.7095613891
 C       -12.8276127446        9.8939577789        0.0061622999
 C       -14.7360680907        8.3828150702        0.1418137000
 C       -13.1651131232        3.3634971495       -2.7118962073
 C       -12.5385198070        2.4425924764       -0.4296668510
 C        -5.3660652614        2.8438189648       -0.2675217536
 C        -5.8182214824        3.5538177050       -2.9167898528
 C        -4.8388862526       -3.3814700189        0.5519871512
 C        -3.8805519900       -3.7432079779       -1.5592325002
 C       -11.8732548089       -3.5952141811       -1.4325774420
 C       -10.8079848138       -4.0395929521       -3.6582721205
 H       -12.8405685030       -1.7767524337       -3.6525217742
 H       -11.6629203688       -0.9845723857       -4.7228341149
 H       -12.6155668308       -0.1689801418       -3.5675010050
 H        -8.3028977593       -4.7122358929       -2.8987870755
 H        -9.0560135458       -5.4833350297       -1.6085554589
 H        -6.8536074658       -5.4848936500       -0.9419841231
 H        -7.4843917115       -4.1844326699        0.0043851276
 H        -3.9725880249       -1.0635710491       -2.9311985321
 H        -2.7943079785       -1.1050294539       -1.6317590636
 H        -3.0682735207        1.3305128253       -2.1185349785
 H        -3.6002949374        0.9560305668       -0.5898225041
 H        -8.3715157812        4.0653446470       -2.2084469860
 H        -7.6438886740        4.0865794044       -0.4756953800
 H        -9.8587794306        3.7004629582        0.2593786116
 H        -9.8258915475        2.1882981472       -0.1963300456
 H       -11.1379442978        5.3671032929        0.5652629082
 H       -12.1486508796        4.2291676122        1.3216168026
 H       -12.5114069236        6.3000545384        2.3826239248
 H       -14.0017167268        6.0417064553        1.3495031615
 H       -11.2821145328        8.9559622698        2.5315127472
 H       -12.0396990212        8.9157828559        3.9508126775
 H       -11.6057001793       11.4470963125        2.0027394983
 H       -11.1313429367       11.2604722367        3.6585058823
 H       -11.7658105532       15.5236734276        4.7094297765
 H       -12.0863737759       15.2394702844        6.2673649032
 H       -13.4237422456       15.3063323592        5.0604514642
 H       -14.4809301247       13.4607703506        6.1071065914
 H       -14.9765368916       11.9168596210        5.3999226557
 H       -14.8552218606       13.6026286413        4.4683180303
 H       -12.3145740817       11.6073280441        6.6957403321
 H       -11.5223442313       11.0300328110        5.3444208206
 H       -13.2505284568       10.3896325822        5.6148073899
 H       -13.3816405893        9.7586043432       -0.9638066421
 H       -11.7552408729       10.1292721835       -0.2114601614
 H       -13.3777799931       10.7520374019        0.3233587587
 H       -15.2663350548        9.2575177893        0.1171794296
 H       -15.4034726523        7.7066966221        0.6637952383
 H       -14.5829506619        8.1650531522       -0.8700177008
 H       -14.0470364769        3.9649071994       -2.5333017686
 H       -13.3791955606        2.3608403110       -2.9763988520
 H       -12.7535170742        4.0050463715       -3.4370455190
 H       -13.5590305588        2.2849663434       -0.4618768076
 H       -12.1353037663        2.5564178292        0.5525640866
 H       -12.0421873284        1.5212836744       -0.5717286717
 H        -5.6293125567        3.7611154143        0.2633127513
 H        -4.2195263995        2.8963387693       -0.2888390433
 H        -5.7412314177        1.9977265591        0.4061791635
 H        -6.1803653507        3.0468533539       -3.7057630909
 H        -4.7993979318        3.6796500189       -3.0925499271
 H        -6.4059899793        4.4502896499       -2.7165605757
 H        -3.8713433457       -2.9795618260        0.8964382136
 H        -4.7149894171       -4.5078407594        0.6428670754
 H        -5.7438992232       -2.9564660152        1.1192480568
 H        -4.0370119903       -4.8614747174       -1.4635768698
 H        -2.9482418135       -3.4153735397       -1.1913277939
 H        -3.8458451653       -3.6250424647       -2.6945525924
 H       -11.6605018160       -3.0862506769       -0.4331440588
 H       -11.9432964018       -4.7027183099       -1.2328861781
 H       -12.9159330370       -3.4276970692       -1.8461385997
 H       -11.3366179181       -4.9756349723       -3.6473523446
 H        -9.7837686622       -4.3687893638       -3.6090686686
 H       -10.9330467606       -3.5628025116       -4.6625156810
 Na       -7.5622135729       -0.8782876462       -2.3281216443
