117

 C       -12.2322176125       -1.2577675131       -3.3747730332
 C       -10.8028090080       -1.9013465721       -3.1158788532
 O        -9.8061156696       -1.1553064778       -3.2266130450
 C       -10.6724914289       -3.3177884272       -2.5669580959
 C        -9.2136936635       -3.5608348075       -1.7308406865
 O        -9.0066577958       -2.6704409714       -0.8578022774
 C        -8.5598437249       -4.9831058414       -1.5774405565
 C        -7.1474774644       -4.9278790326       -1.1381182935
 C        -6.4063161457       -3.5823106147       -1.5357941795
 O        -6.8965530975       -2.8997919808       -2.4204793852
 C        -5.0194465868       -3.2844822445       -0.9635849877
 C        -4.9375242939       -1.7277772452       -0.9330611740
 O        -5.8265581174       -1.0775038066       -0.4970344077
 C        -3.7956698542       -0.8677204063       -1.6098539185
 C        -3.9748723159        0.6628209183       -1.4975173822
 C        -5.2900113427        1.1512641894       -2.1128578294
 O        -5.6802679156        0.5054446442       -3.0769620716
 C        -5.8625989403        2.5490563371       -1.7168627513
 C        -7.4332169867        2.3979912987       -1.1932778173
 O        -7.8610619374        1.2474208375       -1.0598697305
 C        -8.3312389642        3.6296684768       -0.9558190212
 C        -9.7713469350        3.1432254093       -0.6907399756
 C       -10.8812778001        3.7021493687       -1.7731036594
 O       -10.4029086722        4.0961165097       -2.8209718422
 C       -12.3500780013        3.3932752467       -1.5662894851
 C       -13.0707229409        4.5729474371       -0.3992976945
 O       -14.0675594600        5.0532708970       -0.8290024742
 C       -12.1381924115        5.0779930962        0.8087276977
 C       -12.7888118089        6.3983222590        1.4749791684
 C       -12.4363186359        7.6029521159        0.5723479881
 O       -11.7119358890        7.5271980824       -0.4429554738
 C       -13.3078477949        8.8980444159        0.7874234961
 C       -13.3329953036        9.2616733455        2.2537335180
 O       -14.3402872388        8.9301780069        2.8489414894
 C       -11.9391617520        9.7009078814        2.9400872994
 C       -11.5731040960       11.1887694328        3.0588538885
 C       -12.9369654986       11.9811341243        3.3258022449
 O       -13.7035814945       12.3469205966        2.4881841435
 C       -13.0464276653       12.6463760989        4.6620163111
 C       -11.7363763327       13.6027118271        4.7789121366
 O       -10.6306748769       13.2097786133        4.5081963765
 C       -12.0254343742       15.1734427441        5.0121214661
 C       -14.3595105229       13.3337409592        4.6417943092
 C       -12.9724502893       11.7398886817        5.9834040647
 C       -12.8716537182       10.0787694175       -0.1685786612
 C       -14.8907353588        8.7316144643        0.3025921552
 C       -13.0603763272        3.8328449038       -2.9120554266
 C       -12.6446586882        2.0423524362       -1.0367760620
 C        -5.2115808671        2.9678641752       -0.4047827222
 C        -5.7783835701        3.5538163140       -2.9518568708
 C        -5.0373921966       -3.6413796128        0.6145926749
 C        -3.8573008406       -4.0144502756       -1.5778910831
 C       -11.6246277422       -3.3107539386       -1.3723794792
 C       -10.9361891785       -4.4263393098       -3.4805089223
 H       -12.7446846671       -1.9116609181       -4.1275414953
 H       -12.1550073216       -0.2557136626       -3.8863997094
 H       -13.0480192548       -1.2135571164       -2.4744436578
 H        -8.6233738247       -5.5841635751       -2.5281317520
 H        -9.1926668042       -5.5062694373       -0.7891178976
 H        -6.5619910373       -5.7466626665       -1.4009768399
 H        -7.0913027325       -4.9733967788        0.0566884306
 H        -3.5574217142       -0.9190290544       -2.6512835124
 H        -2.8929655757       -1.1745632253       -1.1483344692
 H        -3.2040035591        1.1837243851       -2.1057976716
 H        -3.7367416095        1.0271444132       -0.5360631279
 H        -8.2418383547        4.1162052694       -1.8582971360
 H        -8.0928440467        4.2955929797       -0.1248013863
 H        -9.9400939072        3.4030572248        0.3703372471
 H        -9.7074294836        2.0364295980       -0.5389210355
 H       -11.0936501617        5.0443726798        0.3601956950
 H       -12.2666530856        4.2428039877        1.5471587347
 H       -12.4422984957        6.3873577852        2.4344415067
 H       -13.9147654797        6.3503505351        1.5735104337
 H       -11.0497383640        9.2349133497        2.4503181334
 H       -11.9254798308        9.2018183209        3.7990738426
 H       -11.0591990102       11.6199968231        2.1249280405
 H       -10.8395336542       11.3446528222        3.7979763486
 H       -11.1681144286       15.7534927060        5.4508410336
 H       -12.7459468482       15.4092839527        5.8165827460
 H       -12.3541191403       15.5676108428        4.0467240973
 H       -14.6823314540       13.7011743840        5.5793906958
 H       -15.0814143673       12.5581736590        4.1378312142
 H       -14.4603425612       14.2321691900        4.0316983571
 H       -13.1493460714       12.3356453313        6.8725304817
 H       -11.9581463211       11.3791678768        6.0803076060
 H       -13.8860195598       11.0456869691        5.9331535177
 H       -12.5824219749        9.7885268478       -1.1684519317
 H       -11.9423124228       10.5128988490        0.1306712449
 H       -13.6583788240       10.8481773861       -0.1192321466
 H       -15.5110725010        9.6459654550        0.3663289920
 H       -15.4752177925        7.9518623436        0.8629847809
 H       -14.9052252377        8.5157379708       -0.7747711363
 H       -14.0821051418        3.4484749925       -2.8964950383
 H       -12.6216624228        3.0482828129       -3.6050381514
 H       -13.0898905346        4.9119999871       -3.1739293808
 H       -13.7434813086        1.9379777832       -0.8993983035
 H       -12.1900960361        1.8097294972       -0.0243774440
 H       -12.3788364571        1.1721701575       -1.7451346779
 H        -5.6529459158        3.9285484916       -0.1410297780
 H        -4.1815382994        3.1088986540       -0.5332798281
 H        -5.5590154150        2.5128054861        0.4130706366
 H        -6.1612024569        3.0598260549       -3.8392711085
 H        -4.6523745398        3.6502043159       -3.0045553582
 H        -6.3707721038        4.4991581771       -2.7716571200
 H        -4.1037622779       -3.4508005579        1.0516948314
 H        -5.0261056581       -4.6720061377        0.6883418687
 H        -5.8558110679       -3.0879442451        1.0428695870
 H        -4.0160816964       -5.0982662418       -1.7178150142
 H        -2.9865360549       -3.8419568197       -1.0752517621
 H        -3.6771607732       -3.4509330643       -2.5674555027
 H       -11.4526807536       -2.4783468736       -0.7343614334
 H       -11.5491180674       -4.1415493820       -0.7058967263
 H       -12.5721010610       -3.4170728652       -1.7561712788
 H       -11.8324809533       -4.9812061365       -3.2736214519
 H       -10.1358220661       -5.1801795993       -3.3750243561
 H       -10.7829658201       -4.2312828476       -4.5686985695
 Na       -7.5780365779       -0.7963467548       -2.1758469528
