117

 C       -12.1518771891       -1.2319845075       -3.4697996138
 C       -10.7473530153       -1.9182270208       -3.1488658423
 O        -9.8309738988       -1.1403945643       -3.3088129459
 C       -10.6729164888       -3.4123622036       -2.3969650622
 C        -9.3536345395       -3.5792227610       -1.5922540958
 O        -8.8820758383       -2.7751787860       -0.8477149269
 C        -8.6414908353       -4.9480998918       -1.6231348862
 C        -7.1839459948       -4.9734548250       -1.1506520346
 C        -6.4112457444       -3.7423656291       -1.6098604762
 O        -6.9204369726       -3.0728591974       -2.5058010098
 C        -5.0093299923       -3.3072108102       -0.8894102068
 C        -4.9431597375       -1.6517567661       -0.9530573486
 O        -5.9010621772       -1.0659211730       -0.3924532723
 C        -3.7628862678       -0.9444027228       -1.5712072969
 C        -3.9474216285        0.5608596505       -1.4459998818
 C        -5.2755195802        1.1238172245       -2.0685756009
 O        -5.9499837397        0.5234148186       -2.8334570174
 C        -5.8323202898        2.6054768081       -1.6176348409
 C        -7.3951651233        2.4099093930       -1.2757132206
 O        -7.7158086373        1.2369199248       -0.9871230331
 C        -8.3655557747        3.5492336747       -1.0459807370
 C        -9.8708620440        3.1824428537       -0.6296592741
 C       -10.8167720139        3.5929484782       -1.7784156539
 O       -10.3591652149        4.1173719940       -2.7579232455
 C       -12.4223755912        3.4583804499       -1.5546660179
 C       -12.9282339314        4.5401627120       -0.5771459840
 O       -14.0870862944        4.9763018461       -0.7097470151
 C       -12.2111224255        4.9844292297        0.7056798527
 C       -12.8386784793        6.4168767679        1.2791078341
 C       -12.6241244436        7.5863042278        0.3168673829
 O       -11.7561872046        7.5297602806       -0.5377942954
 C       -13.3720846060        8.9650036322        0.6793135438
 C       -13.2733547716        9.3293805159        2.2084132759
 O       -14.2095129285        9.2631557362        3.0388672240
 C       -11.9511143573        9.5718607601        2.8597876538
 C       -11.6043808916       11.1504953619        3.0394175070
 C       -12.8096068370       12.1065827822        3.3337411298
 O       -13.5207352969       12.2414519469        2.3923472643
 C       -13.0172499839       12.8414893189        4.6871598724
 C       -11.8057460962       13.6961350942        4.6309170622
 O       -10.6680419247       13.2447584705        4.5789228361
 C       -11.9466023122       15.2131185984        4.9094427866
 C       -14.3675402345       13.7036310423        4.6295745002
 C       -12.9754254190       11.8085839145        5.9066153181
 C       -12.8404879996       10.1478675675       -0.1483459037
 C       -14.8817660791        8.7872412371        0.3204474103
 C       -13.2079159568        3.9025546854       -2.8806211793
 C       -12.7877919086        2.0292997640       -1.1603984787
 C        -4.9405347995        3.0791470358       -0.4202085249
 C        -5.8408330379        3.4064592668       -2.9349339930
 C        -4.9160916417       -3.7670235742        0.6191499073
 C        -3.8078268075       -4.0730215842       -1.5101763963
 C       -11.6368758661       -3.4573516086       -1.1045231264
 C       -10.9532518296       -4.4971195323       -3.4922227802
 H       -12.6164177540       -1.6909178842       -4.3939725097
 H       -12.1128871773       -0.1511187153       -3.6237002842
 H       -12.8449725497       -1.4723913893       -2.7529196197
 H        -8.6385828045       -5.3958097246       -2.5761303307
 H        -9.2082643009       -5.5672490395       -1.0220634356
 H        -6.6250485617       -5.9254665057       -1.2960221231
 H        -7.1306137195       -4.8541435385       -0.1161097617
 H        -3.4554529451       -1.1518147872       -2.6411122266
 H        -2.9413639466       -1.3358044942       -0.9389134078
 H        -3.1139361535        1.1648235477       -1.7581913064
 H        -3.9634472768        0.7719696545       -0.3501645723
 H        -8.4498383936        4.0897165465       -1.9885678169
 H        -7.9384289955        4.1701343237       -0.2683262316
 H       -10.1356006944        3.6019041600        0.2474262644
 H        -9.8660776525        2.0904494769       -0.3619854460
 H       -11.1569661228        5.0261958562        0.5022402272
 H       -12.4448881481        4.2335602997        1.4148126988
 H       -12.1474518848        6.5095779664        2.0901349530
 H       -13.8406005177        6.4130173063        1.7556375249
 H       -11.1763839365        9.0680590963        2.3368625822
 H       -12.0176799256        8.9939451819        3.8166537823
 H       -11.0002680169       11.5790510167        2.2599436189
 H       -10.9618648497       11.3185387011        3.8999590755
 H       -11.0680736906       15.3694484950        5.5717012318
 H       -12.7321495222       15.6352543855        5.5249202068
 H       -11.8073258241       15.7813526863        4.0476975351
 H       -14.5662998857       14.2274077711        5.5632712805
 H       -15.2202938971       13.0768747502        4.2654031776
 H       -14.3794459098       14.5677552157        3.9023570348
 H       -13.3931487297       12.2057033065        6.8209812410
 H       -11.9317832805       11.6850509238        6.0293422233
 H       -13.6095705546       10.9206947721        5.6827394626
 H       -12.3999176221        9.8975343700       -1.1288098213
 H       -11.9045787417       10.5414079449        0.2831657004
 H       -13.5441970256       10.9120668609       -0.1368747821
 H       -15.5444770714        9.5143188940        0.5276479288
 H       -15.0622384758        7.9090639951        0.9561198145
 H       -15.0547331325        8.5006405404       -0.6945375618
 H       -14.1107393682        3.1560621854       -2.8455434716
 H       -12.7491627339        3.5903823734       -3.7544785480
 H       -13.6516977960        4.9224978478       -2.8535547967
 H       -13.8128315144        1.7840710059       -1.3198566122
 H       -12.6018098476        1.6494283629       -0.1340263861
 H       -12.2925137789        1.4360832631       -1.9123579902
 H        -5.3303717295        3.8020497426        0.1154505594
 H        -3.9367178161        3.2983211881       -0.8606213846
 H        -5.0567124740        2.3966837802        0.4423291245
 H        -6.4615328693        2.9198971949       -3.6168076413
 H        -4.8245564833        3.4317037588       -3.2213566282
 H        -6.3148126762        4.4142636541       -2.7389802509
 H        -3.9570341935       -3.6791480298        1.0348124628
 H        -4.9208123103       -4.8639734031        0.5043368199
 H        -5.6399157359       -3.3260068506        1.2605944841
 H        -3.7796245264       -5.1277411175       -1.1667623937
 H        -2.8681718377       -3.6209298481       -1.1709997291
 H        -3.7405528834       -3.9302428935       -2.5652971549
 H       -11.3803946265       -2.7891292210       -0.3151458432
 H       -11.7059139947       -4.3899231669       -0.5887831689
 H       -12.6071732184       -3.3280873096       -1.6261400612
 H       -11.9811461618       -4.8457260814       -3.4636683130
 H       -10.3856251428       -5.4399735015       -3.3210013053
 H       -10.5625705335       -4.2804691522       -4.4832103106
 Na       -7.6684670109       -0.7422995682       -2.1453756961
