117

 C       -12.0795672739       -1.4595706522       -3.4486854200
 C       -10.7667327073       -2.0584314921       -3.0875407435
 O        -9.7557130598       -1.4506532185       -2.9663338009
 C       -10.7465580098       -3.5543010196       -2.2133729351
 C        -9.4781070721       -3.6927325170       -1.4912754990
 O        -9.1614299553       -2.9213015559       -0.6378511359
 C        -8.5528857727       -4.9959061949       -1.8330137224
 C        -7.1804243887       -4.9097589389       -1.0878335144
 C        -6.1956052947       -4.0001980187       -1.7400167815
 O        -6.4154461686       -3.6393018491       -2.8795652387
 C        -4.9565204409       -3.4701603902       -0.8638570452
 C        -5.0646061399       -1.9075822604       -0.8045339078
 O        -5.9871054474       -1.4199319336       -0.0841713775
 C        -3.9720295880       -1.0664628207       -1.4284990655
 C        -4.2182668249        0.4789519634       -1.1052240196
 C        -5.5349350613        0.9200816380       -1.7745936374
 O        -6.1426930675        0.2449707944       -2.5304454503
 C        -6.0459961744        2.3830483870       -1.6590873744
 C        -7.4740056855        2.2440928043       -0.9561208700
 O        -7.8128857437        1.1879787601       -0.4121815625
 C        -8.3441960420        3.4719134243       -1.0574328773
 C        -9.8630448261        3.0686426881       -0.8807622093
 C       -10.8150861966        3.7966041699       -1.9032395421
 O       -10.2878784567        4.5055485410       -2.7415045444
 C       -12.3129304372        3.5983933140       -1.7985111629
 C       -13.0452063336        4.4512454718       -0.6678996721
 O       -14.2529940473        4.4620276282       -0.6170450072
 C       -12.1494434464        5.3189666367        0.4635860780
 C       -12.8928837252        6.5586909750        1.1251702132
 C       -12.6949364270        7.7750424608        0.2933345170
 O       -12.2071468894        7.7606979101       -0.7660023879
 C       -13.5177745825        9.2262615157        0.6078574591
 C       -13.2762965041        9.6455601602        2.1292257049
 O       -14.1920355678        9.7294424342        2.9319828038
 C       -11.8615173335        9.7943049206        2.6586388984
 C       -11.2358565323       11.2072100747        3.1315564042
 C       -12.3748411602       12.2782726503        3.1376591376
 O       -13.0931921767       12.2915040254        2.1300108808
 C       -12.8296039415       13.2113121167        4.3869377159
 C       -11.5077794208       14.0647775058        4.6515540122
 O       -10.5154488295       13.5126544354        5.0116809151
 C       -11.5492246066       15.5708587378        4.4043986849
 C       -13.9685018453       14.0637200299        3.8452965490
 C       -13.0166040092       12.3617783186        5.7507388246
 C       -12.9220431346       10.2683266204       -0.3128881692
 C       -15.0799357578        9.0490425871        0.3968916998
 C       -13.1744212396        3.8373345323       -3.1662482107
 C       -12.6746275884        2.1697694828       -1.2308068830
 C        -5.3126641595        3.1108981342       -0.4626389268
 C        -6.1210830786        3.0837215232       -3.1267473762
 C        -4.8674623416       -4.1297614513        0.5926732534
 C        -3.6452286784       -4.0341499491       -1.5569814612
 C       -11.7573698610       -3.3658699905       -1.0539936475
 C       -11.1694577478       -4.8194721922       -3.0410723574
 H       -11.8459994691       -0.9826533321       -4.4626577239
 H       -12.4754035899       -0.6518193414       -2.7674404786
 H       -12.8829883105       -2.1876718515       -3.6189211673
 H        -8.4466958862       -5.1716057088       -2.9387179651
 H        -8.8821123998       -5.9357991520       -1.4556174070
 H        -6.7055842698       -5.9367581732       -1.0596920694
 H        -7.2923282784       -4.6777748846       -0.1329978486
 H        -4.0868939517       -1.3094751730       -2.4661134832
 H        -2.9634582300       -1.2858267363       -1.1192804112
 H        -3.3579870202        1.0031246946       -1.4377652486
 H        -4.2218423704        0.5685002083        0.0063002060
 H        -8.2857407658        3.9391376106       -1.9881702726
 H        -8.2096355510        4.1033557747       -0.2205348549
 H       -10.1383214335        3.2082822929        0.1354527122
 H       -10.0208499448        2.0096618374       -1.1931116686
 H       -11.2740932374        5.7390799591       -0.1143277906
 H       -11.9167735670        4.4090640536        1.0622337943
 H       -12.5942109501        6.9340197845        2.1179956518
 H       -13.9537882900        6.3437695803        1.2162342167
 H       -11.3429043370        9.4302124305        1.8806370697
 H       -11.6654466403        9.2690079758        3.6173993370
 H       -10.4251479808       11.5557567529        2.5127708562
 H       -10.8506442972       11.1864683238        4.1848324155
 H       -11.3789501825       16.1574707317        5.3206807842
 H       -12.6197403575       15.7846322564        4.1313526280
 H       -10.8851428553       15.9877040871        3.6393093619
 H       -14.5866958013       14.7624790470        4.4892157182
 H       -14.7416656085       13.4934599880        3.3916625851
 H       -13.5820920832       14.5875511690        2.9321261386
 H       -13.4527276926       13.0620898222        6.5271838078
 H       -12.0807759737       11.8432686277        6.0007746681
 H       -13.7761246952       11.6403531822        5.5253865279
 H       -13.3136832052       10.3561994327       -1.3496958948
 H       -11.8130532179       10.2275877384       -0.4434386832
 H       -13.0624504262       11.1270046451        0.2819760146
 H       -15.5072190776       10.0856964556        0.4671962398
 H       -15.6099254421        8.3464028798        1.0141882243
 H       -15.2427287268        8.6485656927       -0.6192219453
 H       -14.1729942601        4.3444262457       -2.9121982830
 H       -13.5313720332        2.9613541957       -3.6485751945
 H       -12.5171995956        4.4403407899       -3.8346147429
 H       -13.7631373606        1.9226751128       -1.0258813785
 H       -12.3615426229        2.1756399968       -0.1464244506
 H       -12.2658894594        1.3995033992       -1.9189888937
 H        -5.6667268249        4.2094757259       -0.3382231148
 H        -4.2774801878        3.1228162919       -0.6219178467
 H        -5.5120690371        2.4862263863        0.4427656327
 H        -6.6182092162        2.2411685093       -3.6961859883
 H        -5.0443898250        3.2513689900       -3.2682694175
 H        -6.5996731723        4.0570355551       -3.2193045909
 H        -4.0002534261       -3.7878404838        1.0957528031
 H        -4.9070622451       -5.2328816121        0.4194332093
 H        -5.6982447321       -3.8137080084        1.1782538737
 H        -3.7681049018       -5.0360938876       -1.9784292184
 H        -2.9154297025       -4.1945597364       -0.6726566640
 H        -3.1946993225       -3.3493316323       -2.1707143919
 H       -11.4433699512       -2.4671330311       -0.5746728408
 H       -11.7694544216       -4.1132693010       -0.3291049093
 H       -12.7242710384       -3.1826337873       -1.5191509000
 H       -12.1487664088       -4.8466311509       -3.5601406986
 H       -11.2632346890       -5.6967895757       -2.3505722746
 H       -10.4152606075       -5.1688036735       -3.7458693949
 Na       -7.6417048322       -1.0275044995       -1.5218242518
