117

 C       -12.0692851268       -1.5818147073       -3.4375203140
 C       -10.6673114589       -2.1307535976       -2.9536422426
 O        -9.7233782347       -1.3454673791       -2.9259445024
 C       -10.7980508373       -3.5776165654       -2.2655204177
 C        -9.4286321899       -3.7347006765       -1.4938281359
 O        -9.1857504520       -3.0019010269       -0.5478360134
 C        -8.5646428829       -4.9996851537       -1.7310180034
 C        -7.1773255865       -4.9897567538       -0.9945199193
 C        -6.1656788182       -4.0492805331       -1.7961773671
 O        -6.3103791724       -3.5669790140       -2.8812240653
 C        -4.8152495773       -3.5974184313       -0.8955219870
 C        -4.8948242598       -2.0704654565       -0.7139824638
 O        -5.8318623593       -1.5948764723       -0.0217931569
 C        -3.9014015637       -1.0890311261       -1.2671085366
 C        -4.4352961602        0.4643755993       -1.0995594517
 C        -5.6383664033        0.8469893618       -1.8932600278
 O        -6.1903998794        0.0511697685       -2.6971064662
 C        -6.1205348178        2.2424481959       -1.6147040922
 C        -7.6378892910        2.1901642947       -0.9695599875
 O        -7.9425116945        1.1803119469       -0.4259316438
 C        -8.4358131558        3.4638070356       -0.9764841462
 C        -9.9572970130        3.0446491384       -0.8866535804
 C       -10.8409003855        3.8622658625       -1.9215671767
 O       -10.3403865479        4.6911476371       -2.7309528491
 C       -12.3105000757        3.5303723297       -1.7392216416
 C       -13.0392973883        4.5925706969       -0.5634382740
 O       -14.1964763748        4.5512969897       -0.5222737002
 C       -12.2444281850        5.3836212741        0.4424486950
 C       -12.9170796630        6.5493269067        0.9816474989
 C       -12.8512057420        7.9049427217        0.1514669708
 O       -12.2013463567        7.9794327887       -0.8415946552
 C       -13.5276745993        9.2776499244        0.6523389065
 C       -13.2355899184        9.6542869389        2.1589095588
 O       -14.1467377690        9.7143420520        2.9046694098
 C       -11.6860623247        9.8151092168        2.5759791965
 C       -11.2207093875       11.1246128521        3.0931567643
 C       -12.3790232629       12.1916502304        3.1344126875
 O       -12.8956975162       12.4327329727        2.0413712376
 C       -12.7762709533       13.1956333680        4.2201727476
 C       -11.5053573282       14.1846157666        4.5728557702
 O       -10.5322265348       13.6071656659        5.0637699320
 C       -11.3525832037       15.6219791306        4.3080682881
 C       -13.9213365014       14.0553037382        3.8424177752
 C       -13.1293014295       12.5954905327        5.6502193561
 C       -13.0389401771       10.2846221741       -0.3650528344
 C       -15.0368034776        9.1328499740        0.4071609007
 C       -13.0796143426        3.7691573858       -3.0827919265
 C       -12.6649812807        2.0251483192       -1.4230139579
 C        -5.3522925262        3.1606202473       -0.6131270018
 C        -6.0434261215        3.0347180580       -2.8938528373
 C        -4.9689632200       -4.2334886673        0.5788379768
 C        -3.5053564924       -3.9804809380       -1.5598520707
 C       -11.8719614914       -3.2737105239       -1.1801138577
 C       -11.3452493360       -4.8734981057       -2.9508848121
 H       -12.0829358533       -0.9165766673       -4.1680892403
 H       -12.5896172251       -1.2014963160       -2.6097087622
 H       -12.6551735721       -2.4997020032       -3.7634861327
 H        -8.4911211359       -5.2097768653       -2.6972178098
 H        -9.0094042482       -5.8383459760       -1.3332154067
 H        -6.7626090710       -5.9892385759       -1.1090636439
 H        -7.2137487773       -4.8296982989        0.1168586145
 H        -3.6380529501       -1.3095306953       -2.3204363339
 H        -2.9398347120       -1.1231141275       -0.6517828429
 H        -3.5520858888        1.0443764061       -1.2929873349
 H        -4.7533975476        0.6188087700       -0.0319512294
 H        -8.3333217094        4.0869666808       -1.8380022929
 H        -8.3423946731        3.8915730755       -0.0367975045
 H       -10.2433021342        3.2679197518        0.2348568760
 H       -10.1073658535        2.1030365999       -1.1630072261
 H       -11.3383389542        5.6597590760        0.0172718378
 H       -12.1361968329        4.5862075995        1.1809563286
 H       -12.4743303943        6.8170447788        2.0497755174
 H       -13.9107610941        6.2964995922        1.1813171945
 H       -11.0432756648        9.5310769994        1.7095189365
 H       -11.5132107454        9.2553326600        3.4926644529
 H       -10.6405279690       11.5648057198        2.3530100926
 H       -10.5857194006       11.0527196542        4.0217415165
 H       -10.9983562110       16.1173450879        5.1610524352
 H       -12.2699975890       16.0919591416        3.9504803253
 H       -10.5501265461       15.7936970446        3.5363731790
 H       -14.4272660787       14.6609869283        4.6664477758
 H       -14.7995955496       13.5744512187        3.4678144126
 H       -13.5855489073       14.7032982348        3.0042361000
 H       -13.6221804034       13.4502503574        6.0774278464
 H       -12.3799656795       12.0422429299        6.2315402823
 H       -13.9135474539       11.9457992120        5.4199310676
 H       -13.4020217461       10.0291554129       -1.3355741391
 H       -11.9340784384       10.3199503619       -0.4152314460
 H       -13.3192986393       11.3176948745       -0.0398018235
 H       -15.3549863094       10.2023748927        0.3640424177
 H       -15.6398694664        8.6460280862        1.0716990636
 H       -15.1456100728        8.6647123953       -0.5127315001
 H       -13.8014501840        4.5213374340       -2.9994123398
 H       -13.7319188856        2.8984402295       -3.4198497745
 H       -12.3151414287        3.9640166492       -3.8702995239
 H       -13.6168317208        1.5018950798       -1.5988907606
 H       -12.5222615737        1.8564058594       -0.3540611242
 H       -11.8813909605        1.5654532350       -2.0392556353
 H        -5.8135215103        4.2660746332       -0.7840412967
 H        -4.2964656200        3.2687037291       -0.9301158290
 H        -5.2691742040        2.7825139123        0.4346241387
 H        -6.4776333692        2.3774679886       -3.6510764226
 H        -5.0164637652        3.2633067313       -2.9414136357
 H        -6.5123961541        3.9395543755       -2.8063968339
 H        -4.1582673940       -3.8622901142        1.2076912252
 H        -5.1303973650       -5.2858118378        0.5327131933
 H        -5.8670116765       -3.8205123957        1.0168170018
 H        -3.5847290508       -4.9341919845       -2.0010175782
 H        -2.6119345938       -4.0183250127       -0.8957595489
 H        -3.3404931537       -3.1652369578       -2.2861142929
 H       -11.6414424080       -2.3127538532       -0.6873905830
 H       -11.7235794314       -4.0809528470       -0.4702886533
 H       -12.8785370976       -3.1928316629       -1.5399627597
 H       -12.4672421361       -5.0617131565       -2.9520789888
 H       -10.9654787429       -5.7567412944       -2.4119618493
 H       -11.0395056081       -5.0556835827       -4.0036189302
 Na       -7.6965197331       -1.0848341107       -1.3249374677
