117

 C       -11.7934606461       -1.8123545960       -3.7789828595
 C       -10.7785524249       -2.1478722982       -2.7032936842
 O        -9.7503774936       -1.5947850683       -2.7194489954
 C       -10.9902866035       -3.5378107627       -1.9293073395
 C        -9.4552385434       -3.7932443742       -1.3585463153
 O        -8.9476111918       -3.1228324882       -0.4857649828
 C        -8.4905435533       -4.9500668999       -1.7766961917
 C        -7.1416293643       -4.9664191513       -1.0528358297
 C        -6.0806551225       -4.0022901313       -1.7112128091
 O        -6.1990536988       -3.4645550656       -2.8034407205
 C        -4.7232348675       -3.7680524090       -0.8040264994
 C        -4.9248911330       -2.2180629089       -0.4858999147
 O        -5.8220773977       -1.8109128330        0.2002785154
 C        -4.0001269662       -1.1733163244       -1.1185863243
 C        -4.4443051749        0.2801570644       -0.9696650367
 C        -5.6171255261        0.7557451316       -1.8302539461
 O        -6.1411537309        0.0084839488       -2.5686497042
 C        -6.2609779249        2.2047501996       -1.6296804676
 C        -7.6569021280        2.1106458349       -1.0960251478
 O        -8.2338850038        1.0513031756       -0.7889592920
 C        -8.4686362047        3.4386569931       -0.8542968663
 C       -10.0203412421        3.1325755952       -0.7128566457
 C       -10.9603440531        3.9555823821       -1.6774186790
 O       -10.4724365887        4.7571962484       -2.4166317111
 C       -12.4322151899        3.6645578426       -1.6816608078
 C       -13.1781849252        4.6130610047       -0.6396233878
 O       -14.4010209195        4.5493576751       -0.5249283157
 C       -12.2456447910        5.5701160182        0.1404854747
 C       -13.1034204477        6.7344057225        0.7610001604
 C       -12.7355841652        7.9952054495       -0.0089903388
 O       -12.0856151740        7.9980877117       -1.0193610755
 C       -13.4652751654        9.2859774026        0.5831574008
 C       -13.0457423654        9.7444846643        1.9861122563
 O       -13.8685992363        9.6578964444        2.9026920577
 C       -11.5921955649        9.8805063708        2.3260134509
 C       -11.4888411804       11.1797939999        3.2745227095
 C       -12.3131274019       12.3754093539        2.9022179815
 O       -12.7087929261       12.6735100122        1.7841557362
 C       -12.6795291691       13.3935084300        4.0572674470
 C       -11.3506764015       14.1784277727        4.5143882797
 O       -10.4808820130       13.6208980846        5.1210094747
 C       -11.1601437387       15.6031189958        3.9718447808
 C       -13.8090363192       14.3118345052        3.5416068047
 C       -13.0574662384       12.6021008673        5.3102467357
 C       -13.1463315629       10.5936779350       -0.2359523346
 C       -15.0778627354        9.1751441792        0.5654673751
 C       -13.0505729490        4.0766920409       -3.0872340384
 C       -12.7099827646        2.1218121118       -1.3873266709
 C        -5.3945684308        2.8868021864       -0.6189837609
 C        -6.3600787959        2.8523362053       -3.0557243203
 C        -4.5728097370       -4.5450219683        0.6532986503
 C        -3.5343882177       -4.1897660264       -1.6401429170
 C       -11.9861191176       -3.2857142884       -0.7171178609
 C       -11.2202905019       -4.5195622439       -3.0858305228
 H       -11.5278844088       -0.8696414129       -4.3905966207
 H       -12.8407513816       -1.6444082050       -3.3130105529
 H       -12.0292405150       -2.6244171764       -4.4671593874
 H        -8.2594547363       -4.9405855564       -2.9773029648
 H        -8.9791958734       -6.0049214142       -1.6350905516
 H        -6.7308684326       -6.0379392409       -1.1222385707
 H        -7.1641299785       -4.6631594000       -0.0578636991
 H        -3.8004040591       -1.3253098265       -2.2116008606
 H        -3.0747436057       -1.3489024797       -0.5514327437
 H        -3.4628118323        0.7846903182       -1.0781384775
 H        -4.8878014383        0.4010266138        0.0242728590
 H        -8.4713259415        4.0563165527       -1.7891802853
 H        -8.1091147258        3.8072422813        0.1805508570
 H       -10.3476216407        3.2910006772        0.2388773313
 H       -10.1895722801        1.9815261360       -1.0582381107
 H       -11.5611455989        6.0110657781       -0.6406972012
 H       -11.7193315839        5.1905777312        1.0125073482
 H       -12.8490588230        6.7120642595        1.7445258681
 H       -14.2554084360        6.6978989116        0.7290948421
 H       -10.9339420943       10.1437276756        1.5067630798
 H       -11.3039692222        9.0303184589        3.0240961973
 H       -10.3967339754       11.3305700357        3.5550462036
 H       -12.0275028834       10.9614395595        4.1658111938
 H       -10.6416886699       16.2211151410        4.7618313181
 H       -11.9279119829       16.1196237350        3.3744352017
 H       -10.3172291615       15.4810403983        3.3405214631
 H       -13.9835753205       15.1182284015        4.1978885979
 H       -14.7868904290       13.8824544056        3.6933558169
 H       -13.7465756242       14.6438613029        2.5367455845
 H       -13.1869190886       13.3648417989        6.1236470683
 H       -12.2831106556       11.9058914215        5.6296527728
 H       -13.9508097867       11.9973625812        5.0653824035
 H       -12.9435679625       10.2649684192       -1.3025272171
 H       -12.3351887049       11.1791035196        0.1928335264
 H       -13.9511194013       11.2777777440       -0.2778716858
 H       -15.5286099071       10.0866055299        0.9786341993
 H       -15.3437744737        8.4678657295        1.4016568998
 H       -15.4107377166        8.6453081149       -0.3580724856
 H       -12.9249908558        5.2056517341       -3.2990958591
 H       -14.0565027517        3.8444206185       -3.1459462986
 H       -12.5781462047        3.4875345137       -3.8499767726
 H       -13.7910212675        2.1276578906       -1.3747798520
 H       -12.2072731831        1.7123662572       -0.4015009810
 H       -12.4070142845        1.4138340313       -2.1467191610
 H        -5.6930101348        3.9263978311       -0.5377524332
 H        -4.3933151478        2.9668441053       -0.9423909400
 H        -5.2590790982        2.1908265887        0.2015876888
 H        -7.1325544217        2.3437472561       -3.6793259502
 H        -5.3477321267        2.6979036378       -3.4360621680
 H        -6.5347654302        3.8955993446       -2.8091505092
 H        -3.5644557551       -4.2676761959        0.9704068950
 H        -4.7981021277       -5.6552147265        0.4067544326
 H        -5.3670062122       -4.3761610746        1.4344469647
 H        -3.2603538958       -5.2255727814       -1.2920405432
 H        -2.6808049575       -3.4724501895       -1.5884237033
 H        -3.8959764760       -4.2437604801       -2.6252506345
 H       -11.6658585942       -2.4154569736       -0.0984036183
 H       -12.1501608013       -4.2407513421       -0.1508529234
 H       -12.9447063908       -2.7928204597       -1.1169132097
 H       -12.2250969182       -4.7165190326       -3.3016604951
 H       -10.8089105234       -5.5112364784       -2.9126241582
 H       -10.8862686996       -4.1502662259       -4.0239260496
 Na       -8.0066738653       -1.2482986784       -1.0475421800
