117

 C       -11.5538114355       -1.8739007812       -3.8015112498
 C       -10.5248122872       -2.1366010290       -2.8115484347
 O        -9.6981232677       -1.2395103427       -2.4505449239
 C       -10.7636298159       -3.5581646152       -1.9616903978
 C        -9.3827673166       -3.8285975863       -1.2068177091
 O        -9.1142452989       -3.2555416825       -0.1761409667
 C        -8.4300834377       -4.7429110809       -1.8602677656
 C        -7.2156230333       -5.1371324536       -1.0482572436
 C        -6.0644005897       -4.1523089337       -1.5219917788
 O        -6.2570335835       -3.5276503294       -2.5268695633
 C        -4.7152642205       -3.8628811975       -0.7042255801
 C        -4.9634653596       -2.3410043340       -0.4487445548
 O        -5.9264339580       -2.0243107014        0.2731712126
 C        -4.1470619137       -1.3447414253       -1.2085442034
 C        -4.4834710298        0.1337242653       -0.8463712001
 C        -5.7000203171        0.6223311589       -1.6207671548
 O        -6.2962157851       -0.2379978285       -2.3057067839
 C        -6.3751621222        2.0575884823       -1.5123752283
 C        -7.8401270520        1.9671519734       -1.0885565291
 O        -8.4725970615        0.9540466786       -1.1323194891
 C        -8.5189651578        3.2778766033       -0.8189951588
 C       -10.0395532762        3.1142270309       -0.5164807860
 C       -10.9248255555        3.9076564832       -1.4790553299
 O       -10.3986090955        4.7371699059       -2.1975173012
 C       -12.5466131517        3.7225479835       -1.7322902338
 C       -13.2378333617        4.6266148800       -0.6228213247
 O       -14.4053175152        4.4859431375       -0.4436622232
 C       -12.3819370297        5.7202554456       -0.0244193107
 C       -13.2209161859        6.9293783102        0.6072827690
 C       -12.8282893853        8.2870061160       -0.0618252648
 O       -11.9761979076        8.3072740402       -1.0158175189
 C       -13.5785794965        9.4796142241        0.4638409837
 C       -13.0382204769        9.8239693689        1.8841450287
 O       -13.5461318688        9.4401060835        2.9437760734
 C       -11.5538496456       10.2577899515        2.0400892189
 C       -11.6006591823       11.1506288762        3.3442304067
 C       -12.1944710664       12.5063792226        2.8895077843
 O       -12.2406615332       12.6914121755        1.7175490443
 C       -12.6416826553       13.5150659606        3.9933387800
 C       -11.2746875530       14.1935124770        4.3624923656
 O       -10.4421763191       13.6589482355        5.0689586737
 C       -10.7935395167       15.5287726199        3.6288439760
 C       -13.7359987468       14.5543453507        3.4577370391
 C       -13.2656066348       12.8341013910        5.2296445833
 C       -13.3280218391       10.6065091158       -0.5699118677
 C       -15.1215961478        9.1829782016        0.5895982886
 C       -12.9361137731        4.2177791196       -3.1934321973
 C       -13.0908669742        2.3468466029       -1.3754156674
 C        -5.5376807249        3.0692524207       -0.7554101604
 C        -6.3214097651        2.5564248733       -3.0248559521
 C        -4.6328177050       -4.6839907562        0.5484974486
 C        -3.5706613340       -4.0405578403       -1.8291495057
 C       -11.7701776069       -3.5458824259       -0.6995035556
 C       -11.3156255781       -4.8013040440       -2.8118208553
 H       -11.3964498927       -0.7737237151       -3.9200361732
 H       -12.5919832584       -2.0987852702       -3.5907433487
 H       -11.3070426331       -2.3397688327       -4.7348896086
 H        -8.0607900641       -4.3213203860       -2.7054884646
 H        -9.0282912718       -5.5248817725       -2.1776373266
 H        -6.8719205727       -6.0956968584       -1.2545942288
 H        -7.3191779039       -4.9030546865        0.0897434951
 H        -4.2747273368       -1.5068728015       -2.2742394720
 H        -3.1637635788       -1.6140317478       -0.8366079569
 H        -3.6734531496        0.7003998222       -1.2591210687
 H        -4.5773993338        0.2362668093        0.2256287831
 H        -8.4589337608        3.7778786967       -1.7583166971
 H        -8.0259566057        3.6609994699       -0.0070696183
 H       -10.2163647233        3.6096566193        0.5204185676
 H       -10.2636509873        2.1256420433       -0.5284691254
 H       -11.8428344638        6.1213078384       -0.9366740615
 H       -11.6336331702        5.3589100403        0.7348439128
 H       -13.1958552172        6.9589927116        1.7702498950
 H       -14.2629851261        6.8628972648        0.3783658719
 H       -10.9503848990       10.9014976739        1.3260737482
 H       -11.1739866957        9.3899854111        2.4048143841
 H       -10.5998461655       11.3265954373        3.6749531067
 H       -12.1177377402       10.5879208300        4.1483772733
 H       -10.2012996275       16.1768003949        4.2637239152
 H       -11.6341443698       15.9242225930        3.0794818241
 H       -10.0048426401       15.3079654331        2.8425322234
 H       -13.9568449973       15.2805361426        4.2347983312
 H       -14.8091274969       14.1886671317        3.3922199199
 H       -13.5508285690       15.1157892909        2.5399143111
 H       -13.8113083862       13.6129964635        5.6816503694
 H       -12.4132331918       12.7221386587        5.9498234670
 H       -13.6796974102       11.8061427313        5.0304132796
 H       -13.4775048664       10.3012191815       -1.5698898883
 H       -12.3593052425       11.0145468922       -0.2987921332
 H       -14.0232060597       11.4995627883       -0.4618902512
 H       -15.5873205549       10.0007594111        1.1163701866
 H       -15.3773300419        8.3054113627        1.2337027280
 H       -15.4450088304        8.9586431976       -0.4163498247
 H       -12.2235044253        4.8828094657       -3.5832373645
 H       -13.9849385751        4.6916843504       -3.1143999747
 H       -13.2171990790        3.4035370099       -3.9123699619
 H       -14.2192289276        2.4412511502       -1.4513216340
 H       -12.6285823881        1.9570865379       -0.4876271716
 H       -12.7814782598        1.4905404865       -2.0826276301
 H        -5.8507687819        3.9617618568       -1.0977221092
 H        -4.4138446787        3.0397651818       -1.0577887573
 H        -5.3194121862        2.7643567676        0.2591296906
 H        -7.0596934555        1.9745979505       -3.5351654987
 H        -5.3302016870        2.2893839692       -3.4588430008
 H        -6.5659460603        3.6489692865       -2.9026705953
 H        -3.6587606460       -4.4389434351        1.0121043201
 H        -4.8385403516       -5.6777221720        0.3333800875
 H        -5.4676862894       -4.4874873063        1.2163459040
 H        -3.3042054404       -5.0713506151       -1.7680679114
 H        -2.7724780820       -3.4140424094       -1.5438563251
 H        -3.9584382488       -3.8539131711       -2.9038546269
 H       -11.4355341774       -2.9211578942        0.0911179947
 H       -11.9015220638       -4.5709525753       -0.4484886591
 H       -12.6506034939       -3.0803541495       -0.9542419162
 H       -12.0676236880       -4.5298151716       -3.5629329035
 H       -11.8175310032       -5.4547760970       -2.1411161437
 H       -10.6513227697       -5.3916850125       -3.4595291738
 Na       -7.8344700200       -1.2760522907       -1.0162411952
