117

 C       -11.5223913573       -1.9377039388       -3.8555489084
 C       -10.6642941362       -2.1708509448       -2.5795084898
 O        -9.7805945340       -1.4684184942       -2.2787520895
 C       -10.7546670547       -3.6221159252       -1.8162511353
 C        -9.3032729172       -4.0222249874       -1.1383426328
 O        -9.0659665164       -3.2759446720       -0.1765576509
 C        -8.4079041004       -4.9598460226       -1.8274707272
 C        -7.1016366641       -5.1847241434       -1.0265046242
 C        -6.0706382755       -4.1929821792       -1.6007256076
 O        -6.3108313714       -3.4805907123       -2.5628533831
 C        -4.7662597470       -3.9500534923       -0.7337312074
 C        -5.0135789440       -2.4056865198       -0.4244063396
 O        -5.8697318650       -2.1150442701        0.3132251679
 C        -4.0846006528       -1.2686365888       -1.1490448110
 C        -4.4975328585        0.1428378179       -0.7656789052
 C        -5.7631055641        0.4983641787       -1.5100806447
 O        -6.4497238082       -0.2636560744       -2.2218672456
 C        -6.4046736613        1.9889609859       -1.5882369469
 C        -8.0211826048        1.9620257875       -1.1992914314
 O        -8.6105756419        0.8915876406       -1.1071171470
 C        -8.6902109704        3.2912192631       -0.6941213397
 C       -10.2932478108        3.0456733512       -0.4232826298
 C       -10.9908836617        3.8497065836       -1.5487733573
 O       -10.4256756639        4.6779759427       -2.1683380911
 C       -12.5115337781        3.7312457642       -1.6830497772
 C       -13.1959068322        4.7809836091       -0.7260324860
 O       -14.3423029347        4.5621121094       -0.2857611286
 C       -12.3069864004        5.8611310916       -0.0938746401
 C       -13.2520983474        6.9136742657        0.4969046610
 C       -12.9020842493        8.3454926363       -0.1090908184
 O       -11.9507639800        8.4003896724       -0.8812743121
 C       -13.6404972496        9.6527020446        0.4324515371
 C       -12.9442146125        9.7566864107        1.8039020194
 O       -13.5646783774        9.2284347043        2.7465426150
 C       -11.4998588737       10.2097716065        2.0293353168
 C       -11.4234114753       11.2629422860        3.2668078294
 C       -12.0723231077       12.6370861728        2.8976564792
 O       -12.1462445074       12.9892933961        1.7445380458
 C       -12.5775157271       13.6974743580        4.0615326462
 C       -11.2243461614       14.2501575551        4.3460969179
 O       -10.4500261977       13.6505242473        5.0663725356
 C       -10.6255416277       15.4699493908        3.4285492522
 C       -13.6443995527       14.5480548124        3.3374646035
 C       -13.3976764679       13.0789269302        5.2844639351
 C       -13.5242378752       10.7491647396       -0.6928790940
 C       -15.2738516550        9.3758950026        0.6001854313
 C       -12.7756136431        4.1938125581       -3.1288824178
 C       -13.0444565466        2.2692019321       -1.4632558217
 C        -5.5602386740        3.0681515069       -0.7685992058
 C        -6.2336664347        2.3704693304       -3.1393419844
 C        -4.6790888292       -4.7541963673        0.5456350373
 C        -3.5219938852       -4.0438539672       -1.7522565106
 C       -11.8691034241       -3.2221233412       -0.7906708605
 C       -11.1376384589       -4.6692465206       -2.8053779392
 H       -11.6632230739       -0.8932468120       -3.9796170202
 H       -12.4759243870       -2.4096119102       -3.9071629931
 H       -11.0009137204       -2.2744975170       -4.6538859351
 H        -8.1679350767       -4.5390889440       -2.7504923845
 H        -9.0281509401       -5.7543682212       -2.0362487568
 H        -6.5959075435       -6.1417563573       -1.1458816313
 H        -7.1960557257       -4.8757755340        0.0661202333
 H        -4.2854662146       -1.4503926944       -2.2638234031
 H        -3.0596691905       -1.5248015886       -0.7827123032
 H        -3.7654224648        0.8912757888       -1.1982756133
 H        -4.5729018333        0.1594243399        0.2999509604
 H        -8.6373500689        3.8239525932       -1.6151001724
 H        -8.1354933483        3.6241456157        0.1692579520
 H       -10.5505495880        3.4866671345        0.4843763518
 H       -10.4356605498        1.8718206056       -0.4088036318
 H       -11.5250980246        6.3107356453       -0.6933501321
 H       -11.8877524184        5.2786470577        0.7181073439
 H       -13.2098870210        7.0675727070        1.5609605536
 H       -14.3262382660        6.5542288287        0.3205691136
 H       -11.3471232274       10.9385686676        1.1694220359
 H       -10.8696168972        9.3643713158        2.2828336708
 H       -10.3839214670       11.5712095618        3.5737012141
 H       -11.8515102210       10.7964488835        4.0787248060
 H        -9.8693166745       16.0572852765        3.9779434964
 H       -11.3391879216       15.9377280402        2.7669249071
 H        -9.9400649297       15.0345491793        2.7523846509
 H       -14.1365150051       15.2642334458        3.9412875929
 H       -14.5842264255       13.8960710776        3.1272634854
 H       -13.4122643798       15.0765465584        2.3955371861
 H       -13.9277456540       13.7792207202        5.8081893818
 H       -12.5928722287       12.8447817262        5.8894273344
 H       -13.7779301437       12.0578997341        4.9857027153
 H       -14.2347029765       10.4690800564       -1.4796443981
 H       -12.5007589423       10.9759996555       -0.9428834282
 H       -13.9797579163       11.6843599046       -0.4004188406
 H       -15.6057291953       10.3235658492        0.7459556110
 H       -15.6074277909        8.8516922856        1.4817550894
 H       -15.6860775278        8.9872287435       -0.2979603811
 H       -11.9816042805        4.8444929095       -3.6185511263
 H       -13.7569285675        4.6352263485       -3.1164761058
 H       -13.0463184526        3.3758085939       -3.7638853569
 H       -14.0347866305        2.2151878519       -1.7628507209
 H       -12.6639198752        1.7665248597       -0.6066812845
 H       -12.5065952949        1.6563747076       -2.1758426728
 H        -5.8612037685        4.0363713357       -1.1284138816
 H        -4.4417365100        3.0475401419       -0.9523795610
 H        -5.3985978350        2.7314519170        0.2960830243
 H        -6.6981475830        1.6142167825       -3.6647581373
 H        -5.2341395087        2.3634844981       -3.4140080001
 H        -6.7316406521        3.3141252319       -3.1792538373
 H        -3.7616705405       -4.3943883373        0.9274376394
 H        -4.7748183661       -5.8231345317        0.5069894067
 H        -5.5056885870       -4.5018458372        1.2054479356
 H        -3.5754064408       -5.0316724326       -2.2424013667
 H        -2.6801850147       -3.9222881036       -1.1279120445
 H        -3.6103570620       -3.3189185039       -2.5396699379
 H       -11.6231874286       -2.2712346861       -0.3591433980
 H       -11.8940670142       -4.0093093327       -0.0999697454
 H       -12.8403474249       -3.0284098219       -1.2549968630
 H       -11.8657726788       -4.3341402794       -3.5371868285
 H       -11.6097878929       -5.5687928497       -2.3458402680
 H       -10.3338889282       -5.0343379414       -3.5156485828
 Na       -7.7231695525       -1.4315425055       -0.9945451292
