117

 C       -11.4635893676       -2.4165289017       -3.8554913257
 C       -10.4797898969       -2.8918060354       -2.6999331930
 O        -9.5135050284       -2.2299213659       -2.5037545032
 C       -10.7458833525       -4.2238822420       -1.8149696319
 C        -9.3441481312       -4.4680507488       -1.0037157474
 O        -8.9877980280       -3.7531573412       -0.1051895394
 C        -8.5035069199       -5.7132231847       -1.5002448077
 C        -7.0578552830       -5.7281101752       -1.0676558146
 C        -6.2980596938       -4.2551807861       -1.2209753749
 O        -6.8788326537       -3.4854172891       -1.9251295403
 C        -4.9518359177       -3.9328563239       -0.5514179804
 C        -5.1654912256       -2.4911368703       -0.0930538173
 O        -6.1093254982       -2.1230227114        0.5748787795
 C        -4.0576524717       -1.3857037358       -0.5454562201
 C        -4.6898738472        0.0126780514       -0.4382442282
 C        -5.8775243075        0.3141661923       -1.3770496682
 O        -6.1209965882       -0.5819881056       -2.2298927938
 C        -6.7231503489        1.6928131498       -1.4158078940
 C        -8.0604994380        1.4825487816       -0.5097232256
 O        -8.3450388185        0.4661270211        0.0816992532
 C        -8.9860076473        2.7458432459       -0.1301239262
 C       -10.4648082160        2.5467203310       -0.3427657300
 C       -10.9904862256        3.5009281605       -1.5563322094
 O       -10.2299347407        4.3066874434       -1.9722617121
 C       -12.4618871729        3.6651300341       -1.8783433535
 C       -13.0330985446        4.8675841710       -0.9131986503
 O       -13.7336203229        4.4526070484        0.0301237991
 C       -12.6088388847        6.3017671303       -1.1212686850
 C       -13.7255343207        7.3663911378       -0.9082773020
 C       -13.1497200224        8.8745356307       -0.7313666367
 O       -12.2528807752        9.2559864314       -1.4310913936
 C       -13.9382977099        9.8867915230        0.3205886704
 C       -13.0239193255       10.0146801268        1.7343048637
 O       -13.2598960985        9.3279444280        2.7009460544
 C       -11.6531350566       10.8814285633        1.8145985606
 C       -11.4051012475       11.8650510956        3.0295017637
 C       -11.9640250529       13.2693992517        2.6158164678
 O       -12.0069976278       13.5008367693        1.4183577908
 C       -12.1197323047       14.4252554930        3.6972489046
 C       -10.5196842051       14.8337127041        4.1773998698
 O       -10.3309385735       14.8862579232        5.3600999462
 C        -9.4788923363       15.3838348853        3.1069351885
 C       -12.7518569905       15.6416054301        2.8677351676
 C       -13.0039394986       14.0310215924        4.8928058195
 C       -13.8610903761       11.1444102850       -0.5294025504
 C       -15.4075032086        9.5588357665        0.5845881675
 C       -12.5192939794        4.1588680299       -3.2694430922
 C       -13.3418026707        2.4442313642       -1.6598131224
 C        -5.8153724844        2.9107108411       -0.8808884975
 C        -7.0687311002        1.9168867938       -2.8555179090
 C        -4.5393237956       -4.8342475312        0.5760436086
 C        -4.0463478745       -4.0094329637       -1.8365171274
 C       -11.6399417123       -3.5394219695       -0.6891921921
 C       -11.3873625653       -5.3643556901       -2.5859778171
 H       -11.2538323709       -1.4293145439       -4.3148856205
 H       -12.5668310226       -2.4623200333       -3.4631308561
 H       -11.2388321550       -3.2981309294       -4.6190825975
 H        -8.3259633889       -5.3237385883       -2.5950371563
 H        -9.0966577726       -6.6539799266       -1.5747784752
 H        -6.6786141488       -6.4718219094       -1.7125362488
 H        -6.8398141473       -6.0004375575        0.0436533885
 H        -3.7768106106       -1.6494342874       -1.5478966639
 H        -3.2852925359       -1.4952318437        0.1683579968
 H        -3.9987742200        0.8140201753       -0.8398440096
 H        -4.9321165652        0.2500411512        0.5895639091
 H        -8.7363557778        3.6003315277       -0.8846168248
 H        -8.7910739467        3.0935190217        0.9364615035
 H       -10.9256524637        2.9918704655        0.4839701465
 H       -10.8324091955        1.4238340680       -0.3482136041
 H       -12.0793057563        6.4381897254       -2.0898270747
 H       -11.7785539638        6.4117928540       -0.4254538004
 H       -14.3484502982        7.1050656017       -0.0380773138
 H       -14.3421736531        7.1538848181       -1.7767637889
 H       -11.5017653827       11.5757854617        0.8786524680
 H       -10.8109445201       10.2469208803        1.6514146115
 H       -10.3086728960       11.9151688749        3.0777813694
 H       -11.8216896681       11.4870387045        3.9460017293
 H        -8.7855962400       14.5589341609        2.8137998578
 H        -8.8041668003       15.9733615505        3.7710745320
 H        -9.7796571339       15.9375742783        2.2873604222
 H       -12.8304985421       16.5150079501        3.4028527402
 H       -13.7396741927       15.2226808184        2.5535856490
 H       -12.3859735965       15.9894356596        1.9336667693
 H       -14.0955850138       14.0278073281        4.8825910411
 H       -12.5422714099       14.6258481558        5.7288386607
 H       -12.9018976798       12.9783263789        5.2896663308
 H       -13.6726886121       10.8603375526       -1.5774607270
 H       -12.9237498581       11.6555068016       -0.3899823411
 H       -14.6458727371       11.8980245485       -0.4787832282
 H       -15.7218854760       10.4944415872        0.9791182177
 H       -15.3882040486        8.6296242806        1.2007132058
 H       -16.0394873959        9.5132307570       -0.3624543602
 H       -11.5979030180        4.7207713252       -3.6443261622
 H       -13.3478390193        4.7538029537       -3.5308428621
 H       -12.5021193705        3.2780335306       -3.8592597885
 H       -14.3634415489        2.6230693505       -1.8843298579
 H       -13.5091464617        2.4061384078       -0.5548262957
 H       -12.9095289850        1.6148151324       -2.2277951251
 H        -6.4254581379        3.8949734881       -0.9078373219
 H        -5.1225746760        2.9725433564       -1.5873953191
 H        -5.6352240903        2.9764350958        0.1284000322
 H        -7.7780371776        1.0512042270       -3.2083149781
 H        -6.1637935167        2.1624821617       -3.4483221312
 H        -7.6521327974        2.8366842888       -2.9443421871
 H        -3.5517460328       -4.6407048980        1.0062891664
 H        -4.3737871474       -5.8848843087        0.2052246151
 H        -5.1107154191       -4.7372588477        1.5425892666
 H        -4.3380243820       -5.0012229277       -2.2997388504
 H        -3.0367175706       -4.1612741830       -1.4824153055
 H        -4.1817358045       -3.1652983088       -2.4491468144
 H       -10.9440185383       -2.8159965220       -0.1898446614
 H       -12.0665500786       -4.2413835717        0.0491575816
 H       -12.4671147242       -3.1214344984       -1.3186566653
 H       -10.8251719858       -6.2528428786       -2.4604054550
 H       -11.5496052972       -5.1326169566       -3.6347625988
 H       -12.4004451898       -5.5901644943       -2.1831332616
 Na       -7.8852275995       -1.6030254008       -0.9210916450
