117

 C       -11.4833420358       -3.3828407689       -3.8940795419
 C       -10.4495395479       -3.1947859021       -2.8750255431
 O        -9.7859069107       -2.1979706223       -2.7884142575
 C       -10.6708847439       -4.2548122667       -1.6886637715
 C        -9.2167760604       -4.5991538295       -0.9273849829
 O        -8.8290977099       -3.8117071250       -0.1305732389
 C        -8.6092525138       -6.0188130996       -1.1480217103
 C        -7.0647686756       -5.7400601612       -1.0103677844
 C        -6.4488287739       -4.3705362133       -1.4001555125
 O        -7.0875431370       -3.5661872286       -1.9841852993
 C        -5.1186001189       -3.9236547342       -0.7253734367
 C        -5.2144483689       -2.4537588017       -0.1809944177
 O        -6.1336882009       -2.2483413269        0.6119826079
 C        -4.1728904010       -1.2452583777       -0.4228353130
 C        -4.9348259604        0.0997331554       -0.0961547154
 C        -6.0838176363        0.3394026252       -1.1587742747
 O        -6.3373586437       -0.6304816676       -1.8848030435
 C        -6.8686598976        1.6234266694       -1.1076907574
 C        -8.0713340236        1.4650848564       -0.1572089255
 O        -8.3146982690        0.3619266684        0.3004428404
 C        -9.0179100696        2.5720163867        0.1424480684
 C       -10.3934307146        2.4198358606       -0.6265590496
 C       -10.7498956905        3.6252011575       -1.5304956777
 O        -9.9829448836        4.3522056794       -2.0531430701
 C       -12.2970237284        3.7361524175       -1.8997903006
 C       -12.7207779047        5.0955970027       -0.9854439927
 O       -13.2804664028        4.8467554121        0.1068212972
 C       -12.5752513055        6.5331288597       -1.4798285496
 C       -13.3827199589        7.5292767954       -0.6991464283
 C       -12.9924151285        9.0114580674       -0.8659608573
 O       -12.1078965959        9.3811007545       -1.6357532493
 C       -13.8254169110        9.8833620175        0.1156479738
 C       -13.0051001423       10.1131453145        1.4445956612
 O       -13.3895046278        9.7353566725        2.5656742085
 C       -11.6758622168       11.0649345298        1.5834678511
 C       -11.8105060679       12.0508691839        2.8026803090
 C       -12.0611082114       13.5257022474        2.3603684354
 O       -12.2264010415       13.6900503678        1.1922752046
 C       -11.8563563371       14.6006474594        3.4567372074
 C       -10.4280723041       14.8926526459        4.0340340557
 O       -10.1012711854       15.1856441683        5.1674540682
 C        -9.2629117324       15.0900221062        2.9644430676
 C       -12.2170258306       15.9180239770        2.7144325316
 C       -12.8023514852       14.4194472782        4.7501984109
 C       -13.9894674621       11.3333565536       -0.3297757635
 C       -15.1724747176        9.3383631955        0.7204315932
 C       -12.4545463490        3.9839938586       -3.3691538874
 C       -13.2204849955        2.5039389682       -1.4045275718
 C        -6.0403456749        2.9059080137       -0.6807184111
 C        -7.5849888811        1.7600447453       -2.5424221506
 C        -4.7304633263       -4.6558695028        0.5852541283
 C        -3.9145866273       -4.2726405122       -1.6826204720
 C       -11.8201069750       -3.7682181370       -0.7284200009
 C       -11.2658464203       -5.6518942113       -2.3689147820
 H       -11.4771799181       -2.4896812235       -4.4087083213
 H       -12.4069550109       -3.5976426337       -3.3102078147
 H       -11.2581407467       -4.2043281246       -4.6175336069
 H        -9.0012272813       -6.4025151897       -2.1938365795
 H        -8.8858285351       -6.8328530307       -0.4076007222
 H        -6.4059089757       -6.4230945884       -1.4209045638
 H        -6.9100301345       -5.9269723586        0.1586849153
 H        -3.6862050372       -1.2850172410       -1.4571604268
 H        -3.3253094615       -1.4128003711        0.3714689211
 H        -4.1506318105        0.8475876439       -0.3027262627
 H        -5.2664546447        0.3632964093        0.9711823082
 H        -8.5874852155        3.5454220483       -0.1480525699
 H        -9.2869081790        2.6702925430        1.1643726488
 H       -11.3112797258        2.3047490580       -0.0236363675
 H       -10.3554150742        1.4821860563       -1.1892001693
 H       -12.8757605492        6.4890732470       -2.5138585761
 H       -11.5798371650        6.9136447744       -1.5185339213
 H       -13.1157543442        7.1739834546        0.3856403100
 H       -14.4258342477        7.4181059331       -0.8844804922
 H       -11.3431119399       11.4685982875        0.5191406556
 H       -10.8962838498       10.3568363700        1.6335837679
 H       -10.9046460447       11.9655989370        3.3684802209
 H       -12.6115425323       11.5528757762        3.4082991646
 H        -9.3513856920       14.3465615398        2.1311298178
 H        -8.3896382329       14.6155120192        3.4029713678
 H        -9.1938089960       16.0466746909        2.5100509928
 H       -12.1487217906       16.7717752038        3.3358904674
 H       -13.2962255932       15.9669979411        2.2155165125
 H       -11.5148588132       16.1507465828        1.9077948645
 H       -13.1882847111       13.4704116904        4.6670364893
 H       -13.5794111230       15.0899460629        4.8067112833
 H       -12.4629141598       14.4036303810        5.7965065350
 H       -14.9605235959       11.5556569621       -0.6740079072
 H       -13.4152533149       11.5235086065       -1.2227652846
 H       -13.5362626339       12.0061364473        0.4502711352
 H       -15.3809673114       10.0932753690        1.3748409926
 H       -14.8919260833        8.3834073961        1.1951976313
 H       -15.9274701378        9.1451067021        0.0043974050
 H       -11.7977980858        3.4480064377       -4.0709384549
 H       -12.2665508325        5.0242388458       -3.6715978736
 H       -13.4429957508        3.6065438743       -3.5754693896
 H       -14.2200409872        2.7260947802       -1.5643268534
 H       -13.3516567383        2.5571953571       -0.3744928093
 H       -12.9815267096        1.6116635422       -1.9557238796
 H        -6.6946415384        3.8119708397       -0.7183629347
 H        -5.2431756412        3.1112769346       -1.3037615115
 H        -6.0036225453        2.9067908911        0.3818485479
 H        -7.8278762541        0.7443517903       -2.8541138229
 H        -6.8812968659        2.1697313805       -3.1905713053
 H        -8.4228424090        2.3543701527       -2.6087349406
 H        -3.9093408644       -4.2099327227        1.1020276189
 H        -4.5139052826       -5.6777783053        0.4635974616
 H        -5.4707616186       -4.6276688465        1.4185431186
 H        -3.8147906247       -5.3542142141       -1.7712145733
 H        -3.0226964983       -3.8888428126       -1.2476710046
 H        -4.0852118414       -3.7466286779       -2.6389362505
 H       -11.8574620792       -2.7033319972       -0.7331324692
 H       -11.6027306853       -4.0543491236        0.2674261688
 H       -12.6958108040       -4.1864232738       -1.1080813237
 H       -10.9402505405       -5.6242492295       -3.4117592092
 H       -12.3442046527       -5.6353928373       -2.5199213340
 H       -11.0160433738       -6.6342365380       -1.8580301321
 Na       -8.3003522639       -1.7906632043       -0.9134069502
