117

 C       -11.3967867180       -3.6861091568       -4.1521698441
 C       -10.6460804959       -3.4546651200       -2.8032263534
 O       -10.0407626195       -2.3963266054       -2.6271817802
 C       -10.7302287697       -4.5375450665       -1.6703473169
 C        -9.3741673256       -4.5932914421       -0.9288808227
 O        -9.1909433798       -3.8821004155        0.0813734415
 C        -8.3786944616       -5.7592972913       -1.3891446646
 C        -7.0616612743       -5.7877012801       -0.7107420245
 C        -6.3600877545       -4.4291734887       -1.2545816394
 O        -6.7322535786       -3.8936356199       -2.3106306427
 C        -5.1005381471       -3.8260266356       -0.5327533437
 C        -5.4353342760       -2.4376981325       -0.0517129051
 O        -6.4984924078       -2.1862017101        0.4502248652
 C        -4.4561158525       -1.3714516440       -0.4428777066
 C        -4.8598889514        0.0392879080       -0.2799968652
 C        -6.2087595176        0.2388299003       -1.0090815133
 O        -6.5679776365       -0.6356085508       -1.7889558446
 C        -6.9539871574        1.5776911007       -0.9942685911
 C        -8.2689566526        1.2963939647        0.0510318255
 O        -8.7609255666        0.2316019795        0.3783592372
 C        -9.1093403117        2.5381799331        0.2931655047
 C       -10.3074527861        2.3504765591       -0.6169404596
 C       -10.7114982377        3.6394526292       -1.5244318111
 O        -9.7866615050        4.3497646623       -2.0295005310
 C       -12.1378537457        3.8586603369       -1.8165828566
 C       -12.6024750415        5.1355320381       -1.0016297392
 O       -12.9920496749        5.0431119215        0.1133643676
 C       -12.5858742883        6.5945570462       -1.6915402431
 C       -12.9261260380        7.5313462592       -0.3675632195
 C       -12.9391234774        9.0717388103       -0.6467350655
 O       -12.2217121648        9.5382122612       -1.4736817568
 C       -13.8217626773       10.0167484762        0.2167443213
 C       -13.0353538885       10.2362879187        1.6383355050
 O       -13.3251360430        9.6512453456        2.6502631757
 C       -11.7338310426       11.2039416504        1.5263834947
 C       -11.7169945553       12.2471742279        2.6173802396
 C       -11.9501274327       13.7341349666        2.1644386101
 O       -12.3217372408       13.9853487191        1.0240097524
 C       -11.7631585991       14.8213198662        3.2193779765
 C       -10.2940301093       14.8870672794        3.7570865494
 O       -10.1268941908       15.0226438465        4.9564198828
 C        -9.1462240397       14.6649250419        2.7628596861
 C       -12.0770511939       16.2580240754        2.7714258924
 C       -12.6660686401       14.4842378885        4.3712022636
 C       -13.9525733897       11.3234412618       -0.5956411271
 C       -15.2319049872        9.4000027310        0.4398537685
 C       -12.3439224910        4.0649468538       -3.4049491298
 C       -13.0585798201        2.7251763483       -1.2971320150
 C        -6.1544907685        2.8590198174       -0.6231926332
 C        -7.5953129278        1.8332235894       -2.4045986046
 C        -4.7377803300       -4.7126807664        0.6264847462
 C        -3.9928667829       -3.8915186205       -1.6087716805
 C       -11.7125407992       -3.8492199821       -0.5912752431
 C       -11.1485088215       -5.9936981504       -2.0814603216
 H       -11.2408286172       -2.6881486888       -4.7118941566
 H       -12.4563633232       -3.9452978171       -3.8464964028
 H       -10.8391961612       -4.4204024538       -4.6981921623
 H        -8.2677985414       -5.7699203210       -2.4193913699
 H        -8.8791534688       -6.7049778615       -1.1423223907
 H        -6.4336531743       -6.7413297785       -0.9567571883
 H        -7.1202226490       -5.7898922916        0.3350308591
 H        -4.2912979119       -1.5705340372       -1.4780218677
 H        -3.5448763096       -1.6124010121       -0.0240588802
 H        -3.9627322290        0.6725531983       -0.4728007952
 H        -5.1536548012        0.3500064542        0.7092799960
 H        -8.6975940746        3.5111639309       -0.0027263449
 H        -9.4549825197        2.6712919812        1.3834205061
 H       -11.2834917247        1.8936175764       -0.2149648589
 H       -10.0305202658        1.5870254644       -1.3670353987
 H       -13.3413685166        6.8032248863       -2.4542798792
 H       -11.6176256787        6.9334189921       -2.1539746373
 H       -12.1832205638        7.2833811294        0.2798657924
 H       -13.9415266560        7.1650995967       -0.0448425578
 H       -11.5651450971       11.5018599642        0.5767105657
 H       -10.9171113247       10.4116351307        1.5092742957
 H       -10.7301033162       12.0992999375        3.1113402401
 H       -12.4947490302       12.0703451076        3.3554764553
 H        -9.4518827947       14.6030447555        1.7732978411
 H        -8.5228942905       13.8310209137        2.8510709417
 H        -8.6857597773       15.6905567081        2.7786764887
 H       -11.8184387151       17.2244292142        3.2410778092
 H       -13.1071955329       16.3694841376        2.7405970544
 H       -11.7351693171       16.2410350150        1.7406912884
 H       -12.3572614638       13.5191625046        4.9192282621
 H       -13.7807208991       14.3723281853        4.1759148179
 H       -12.6933339819       15.2048565696        5.1669143956
 H       -14.9995947354       11.4785387366       -0.9027519640
 H       -13.3946529513       11.3478036137       -1.5539702170
 H       -13.5386140327       12.1005479167       -0.0221378667
 H       -15.4814711991        9.7778643896        1.5032502495
 H       -15.2445030591        8.2836549555        0.5281090855
 H       -15.9132436391        9.6415165149       -0.4184355239
 H       -12.7117111620        3.2093530247       -3.8836537703
 H       -11.3408685087        4.1454789565       -3.8128486927
 H       -13.0499166899        4.8749624018       -3.6504533193
 H       -14.1059185372        2.8795605093       -1.7390907702
 H       -13.2082257751        2.8118401110       -0.2273951768
 H       -12.7518161631        1.8067016445       -1.7523156671
 H        -6.4938798796        3.8234189697       -0.6608540412
 H        -5.1686934368        2.8236943645       -1.3187307323
 H        -5.7252438207        2.6487769121        0.4094051734
 H        -8.3917543325        1.1442427771       -2.6314323429
 H        -6.9131505993        1.5861766108       -3.2960749343
 H        -7.9545735633        2.9419254431       -2.5077089946
 H        -3.8247824644       -4.3403711005        1.1712625539
 H        -4.6606620400       -5.8354173544        0.5225927234
 H        -5.5288997142       -4.6739822027        1.4063044135
 H        -3.7048192095       -4.8936372507       -1.8706012634
 H        -3.1266665302       -3.2939573286       -1.3102165975
 H        -4.4600171386       -3.4035295135       -2.5118939614
 H       -11.1097277933       -3.0311442359       -0.1950471946
 H       -11.8979194060       -4.5491728720        0.2495478137
 H       -12.6296835117       -3.4645828882       -1.0806675084
 H       -10.4055965340       -6.5158103249       -2.6894915736
 H       -12.0407986537       -6.0673300984       -2.7241597174
 H       -11.3299816969       -6.3654077332       -1.1198299009
 Na       -8.3052564095       -1.8278157629       -0.8789538913
