117

 C       -11.1041102064       -3.9655552613       -4.0996292980
 C       -10.7481962751       -3.7000161906       -2.6146315900
 O       -10.0756604311       -2.6939654209       -2.4218354062
 C       -11.0381218904       -4.7567028046       -1.4987404035
 C        -9.4945176695       -4.9277145251       -0.7994922198
 O        -9.0834056968       -4.0890969285       -0.0349171836
 C        -8.4976533081       -5.9177807026       -1.3287119144
 C        -7.1258357096       -5.6441406541       -0.5419644770
 C        -6.2714776550       -4.4059432112       -1.3058331274
 O        -6.4423141848       -4.1785205423       -2.4444487799
 C        -4.9335141665       -3.8599458551       -0.4874082940
 C        -5.2892963793       -2.4604734393       -0.0112872092
 O        -6.3565458134       -2.1964865308        0.5445048192
 C        -4.3694699520       -1.2846210588       -0.2827787590
 C        -5.1258332874        0.0210677684       -0.2287306535
 C        -6.2844929756        0.2709345345       -1.1480992941
 O        -6.7209126344       -0.6820087551       -1.8330033594
 C        -7.0312206547        1.5806654513       -1.0596864325
 C        -8.4619995934        1.2817475836       -0.0596962892
 O        -8.6348888967        0.1211350121        0.2200708919
 C        -9.2367213667        2.4971937387        0.3365560079
 C       -10.7045098069        2.5295143156       -0.3019143019
 C       -10.6848211733        3.6559934381       -1.3945203110
 O        -9.7722439734        4.2720537810       -1.8048838609
 C       -12.1318211430        4.0349621933       -1.9657937891
 C       -12.5679422725        5.2690162808       -0.8336877570
 O       -12.6068446687        4.8519999288        0.3192006696
 C       -12.5319757282        6.7041353968       -1.2169389623
 C       -12.5288799991        7.7343559709       -0.1011918608
 C       -12.7627755510        9.1812325640       -0.5544776082
 O       -12.1508346684        9.6164562934       -1.5295728254
 C       -13.7828602896       10.2353213241        0.1138127188
 C       -13.0147390667       10.4309773717        1.4975374621
 O       -13.3740638061        9.6986241916        2.3738595342
 C       -11.7322437348       11.2810792376        1.3458318691
 C       -11.7338677885       12.3679569598        2.4514913628
 C       -11.9921837818       13.8313780028        2.0537154280
 O       -12.2581030314       14.1162907870        0.8865794300
 C       -11.7438456179       14.9322331720        3.1208128468
 C       -10.1816358379       14.6390319099        3.5602392744
 O        -9.8930173312       14.8710657774        4.7030331545
 C        -9.0605569816       14.4512491491        2.4969374742
 C       -12.0100418462       16.3096632546        2.4318989611
 C       -12.7198219511       14.7580829776        4.3277196933
 C       -14.1396957350       11.5998774328       -0.6878698166
 C       -15.1263167094        9.5784579111        0.4873959990
 C       -12.2476525923        4.3257333173       -3.5528839229
 C       -13.1884810775        2.9615701719       -1.6639862701
 C        -6.2090519166        2.6599639980       -0.2620029890
 C        -7.7140407363        2.0251770152       -2.3721064175
 C        -4.5464368515       -4.6581179873        0.7933381453
 C        -3.7455831879       -3.9135569744       -1.4715168762
 C       -12.0609403607       -3.9596313636       -0.5563366070
 C       -11.6258195164       -6.0493778129       -2.1188941293
 H       -10.8899254010       -3.1090377584       -4.7354974398
 H       -12.0441289830       -4.2863875341       -4.1068514456
 H       -10.4331297710       -4.8050983606       -4.2961610680
 H        -8.2850498530       -5.7724857538       -2.4342463461
 H        -8.9655902556       -6.9122210559       -1.2605340803
 H        -6.5975351369       -6.5263417796       -0.3118794925
 H        -7.3813411723       -5.2623551063        0.5222989391
 H        -3.7552625438       -1.5814328623       -1.1602522787
 H        -3.5599938479       -1.3654049114        0.5261587521
 H        -4.5282270366        0.8329836482       -0.6333020011
 H        -5.2550547644        0.4045266099        0.7834967719
 H        -8.8269032140        3.4423250168        0.0352247968
 H        -9.3559479820        2.5881197371        1.3456615282
 H       -11.4475516188        2.6845838858        0.3222812615
 H       -11.0156012198        1.6223717698       -0.8742508463
 H       -13.4859785021        7.0484365479       -1.7259133127
 H       -11.7432673331        6.8056757509       -1.9353858698
 H       -11.4325944198        7.6968178991        0.2729763075
 H       -13.2692732480        7.4266728458        0.6001275329
 H       -11.7288306801       11.6436481310        0.2347792691
 H       -10.9629379208       10.6070839810        1.1784726510
 H       -10.7267105515       12.3033716868        2.8814451312
 H       -12.4267000684       12.2521363961        3.3308705050
 H        -9.2175111795       14.8054265304        1.4186340084
 H        -9.1146543660       13.3080944161        2.3600651496
 H        -8.1096016765       14.7869211384        2.8342748914
 H       -12.0013562612       17.0164758418        3.2372573145
 H       -13.0871608531       16.5459001050        2.2828937274
 H       -11.3572903789       16.6199922584        1.5815031107
 H       -12.3760824079       14.5446481981        5.2791573654
 H       -13.3382833272       13.8638595378        4.1517680447
 H       -13.4625788189       15.5419110674        4.4535927983
 H       -15.0256903762       11.3793838095       -1.3421333592
 H       -13.3242233310       12.1229942525       -1.2201542027
 H       -14.4628645651       12.3539086099        0.0933854665
 H       -15.7951995297       10.3251285814        0.9079768372
 H       -15.0379224535        8.8744617228        1.3179174482
 H       -15.4346714468        9.0757569621       -0.4132069701
 H       -13.0115445922        3.5311202331       -4.0187002643
 H       -11.2938358842        4.0356821733       -3.9850674973
 H       -12.5385401251        5.3658584015       -3.7841841548
 H       -14.1926409994        3.0844737364       -2.0312625098
 H       -13.0964944877        2.9610486662       -0.4966893188
 H       -12.8576569240        1.9818417157       -2.1489974220
 H        -6.9125030188        3.5985521289       -0.4209822124
 H        -5.2972792442        3.0363932850       -0.6736316453
 H        -5.9344518450        2.4782565419        0.7803261985
 H        -8.2216162413        1.1255328987       -2.8631957235
 H        -7.0294670037        2.2055900922       -3.1843091873
 H        -8.3149465373        2.8705909913       -2.2484864490
 H        -3.6317980559       -4.3025855467        1.1449156403
 H        -4.4554346267       -5.7442637425        0.6664730165
 H        -5.2527458457       -4.7705274444        1.5947448084
 H        -3.7724703631       -4.9566060524       -1.9394450176
 H        -2.8191575326       -3.8125694108       -0.8772061653
 H        -3.7837907230       -3.2782420509       -2.2807044556
 H       -11.5888616001       -3.1807395628        0.0739988005
 H       -12.3478869719       -4.7586949041        0.1027714545
 H       -12.9294751690       -3.6214175209       -1.1541488511
 H       -11.0650532592       -6.2160983157       -3.0162322564
 H       -12.6255553790       -5.8150262575       -2.4236040824
 H       -11.6616781441       -6.8463635100       -1.3563503780
 Na       -8.6158586457       -1.9340734731       -0.9519958656
