117

 C       -11.0416270300       -4.2058528423       -4.0986492780
 C       -10.6785655313       -3.8964714307       -2.5936814776
 O       -10.1587685731       -2.8031585969       -2.3022150256
 C       -11.1084254130       -4.8622954054       -1.4954826334
 C        -9.6599271356       -4.9491942418       -0.7740844239
 O        -9.3648930434       -4.0003542722       -0.0418713780
 C        -8.4341827128       -5.9214743767       -1.1854398116
 C        -7.0259203867       -5.6384450002       -0.6054043745
 C        -6.1508488557       -4.5915909165       -1.2561282089
 O        -6.3619355114       -4.2498548789       -2.4132686865
 C        -4.8552886085       -4.0418322435       -0.5437951918
 C        -5.2975716662       -2.4971604070       -0.0295939720
 O        -6.3199977986       -2.3470111901        0.5759962935
 C        -4.2569671331       -1.2321265761       -0.1894807869
 C        -5.0024243098        0.0738091717       -0.1996917752
 C        -6.3012295377        0.1839432932       -1.1404225496
 O        -6.8212730371       -0.6430333049       -1.9124280908
 C        -7.2147914530        1.6257366619       -1.0111962614
 C        -8.4654860626        1.1927192585       -0.1810681690
 O        -8.8340011185        0.1380249924        0.2106975031
 C        -9.3213256798        2.4054443114        0.3438248367
 C       -10.7766655140        2.6974008274       -0.1645214184
 C       -10.8944646746        3.6708799317       -1.3871061533
 O        -9.8311746729        4.2045583690       -1.7041186876
 C       -12.2545027638        4.1712648467       -1.8586524982
 C       -12.3769473674        5.1883281220       -0.7254363625
 O       -12.4877331790        4.8177082666        0.4114246807
 C       -12.5244055584        6.7481844509       -1.1643496451
 C       -12.4990371033        7.8743046412       -0.0536480426
 C       -12.7697139891        9.3135980743       -0.7126994968
 O       -12.1015192007        9.6870488011       -1.6331051281
 C       -13.8373758045       10.2131096350        0.0471517272
 C       -12.9875107199       10.4626475380        1.4172629700
 O       -13.1723865989        9.9300440733        2.4177911082
 C       -11.7510146294       11.4224515705        1.2948346573
 C       -11.8371908495       12.3147883533        2.4900358737
 C       -11.9812209614       13.7892752757        1.9946138592
 O       -12.2274630416       14.1403936240        0.8169478791
 C       -11.7229708858       14.8901585187        3.0760418160
 C       -10.2234183751       14.7287651003        3.4092950869
 O        -9.8735088738       14.7867111191        4.5524399974
 C        -9.1087916090       14.4470996143        2.3638757028
 C       -11.7938824272       16.1921333428        2.3491437239
 C       -12.6439632286       14.9071328049        4.2411394708
 C       -14.0773635385       11.5313135430       -0.6990808799
 C       -15.1423120815        9.5428989014        0.3724956070
 C       -12.0408190946        4.6930608845       -3.3079877209
 C       -13.3518909083        3.0196880809       -1.8353403567
 C        -6.4010811785        2.7296189892       -0.2816910359
 C        -7.5506919956        2.1376758239       -2.4037591484
 C        -4.6002053497       -4.6188850822        0.8107557723
 C        -3.6641124363       -4.0230680880       -1.4294971539
 C       -12.0758640767       -4.0201664154       -0.4915968205
 C       -11.6940649834       -6.0616615582       -2.1587116842
 H       -10.6817382261       -3.2169109474       -4.6305203525
 H       -12.1428467190       -4.4470963076       -4.2379019324
 H       -10.3254521682       -5.0213372097       -4.3577209100
 H        -8.4658313800       -6.1950367171       -2.3286919432
 H        -8.8311912244       -6.9197549011       -0.5964690178
 H        -6.5440654595       -6.6317828442       -0.5394067225
 H        -7.1688131098       -5.5036444432        0.3935199405
 H        -3.6287835884       -1.6604369703       -1.0381077354
 H        -3.4825340723       -1.3506077002        0.6088466883
 H        -4.5911836473        1.1287128635       -0.2036053605
 H        -5.4995842373        0.0658062833        0.7754932071
 H        -8.9073646871        3.4035686239        0.3697933503
 H        -9.5442107296        2.2142901975        1.3944140640
 H       -11.2917530509        3.2500382874        0.6467715327
 H       -11.4404535868        1.7824243133       -0.3656273687
 H       -13.4650700935        6.9695690060       -1.6679571720
 H       -11.7494722353        7.0240980894       -1.7996795568
 H       -11.4815470384        7.8619633044        0.2250102188
 H       -13.2440931212        7.6886753760        0.8016382799
 H       -11.7631937489       11.9212478168        0.3526269028
 H       -10.8737315525       10.7627532636        1.0488409731
 H       -10.8527645906       12.2390404540        3.0115010334
 H       -12.5703330033       12.1072163565        3.2468842168
 H        -9.1368177152       15.0748000126        1.4670072454
 H        -9.3098835290       13.4321087239        1.9550727305
 H        -8.0766962911       14.5176412114        2.8199736517
 H       -11.9164812290       16.9669161098        3.1511796668
 H       -12.6582414471       16.4277635565        1.8902790344
 H       -10.8713254434       16.3392317832        1.7234059535
 H       -12.1641363944       15.2182335861        5.1367496815
 H       -13.1137368730       13.9712552978        4.6384606542
 H       -13.3663211971       15.5749238632        4.0543541215
 H       -14.4887091946       11.1763898937       -1.7320291775
 H       -13.1005361034       12.0441229612       -0.8195263517
 H       -14.8227932695       12.2028337152       -0.3128171697
 H       -15.9273795979       10.3275356408        0.4903021891
 H       -15.1663225503        9.1811748440        1.3205912631
 H       -15.3867743103        8.8577542732       -0.3755859881
 H       -12.7269076126        4.1719109851       -3.9887329124
 H       -11.0225137988        4.4831651034       -3.6478265624
 H       -12.1987412998        5.7802662149       -3.3134405810
 H       -14.2324767724        3.3750635875       -2.3574399955
 H       -13.5449030085        2.7813857505       -0.7759734365
 H       -13.0201414999        2.1806917817       -2.4099599223
 H        -6.8626529912        3.5678944998       -0.4523178142
 H        -5.4208928544        2.9109802448       -0.7658749117
 H        -6.0439811851        2.5229365639        0.6661606768
 H        -7.7293281777        1.4027779806       -3.0566939844
 H        -6.7179001841        2.5460053235       -2.8574784846
 H        -8.3351477595        2.8600070894       -2.3982005060
 H        -3.7834144844       -4.2031681572        1.2892082897
 H        -4.4225569616       -5.7125986093        0.8067260607
 H        -5.4217600824       -4.7248511302        1.4015602398
 H        -3.3310765091       -5.0394184479       -1.6950114812
 H        -2.8874315715       -3.5380811007       -0.8576433228
 H        -3.8616440908       -3.5714942821       -2.3743248412
 H       -11.5635027104       -3.1290817830       -0.2578530507
 H       -12.2747148521       -4.5394565899        0.4162278812
 H       -12.9898873961       -3.8200748495       -1.0697336012
 H       -11.2225444047       -6.2785014909       -3.1425816713
 H       -12.7983914625       -5.8070438513       -2.2701951504
 H       -11.6387708148       -6.8598698805       -1.4411723893
 Na       -8.6199368682       -1.9815117922       -0.8577034651
