117

 C       -10.9082289489       -4.3484466244       -4.2016543965
 C       -10.6935770569       -3.9184441987       -2.7736962723
 O       -10.2688523106       -2.8203466828       -2.5138994187
 C       -10.9756208771       -4.8744556352       -1.4769440394
 C        -9.5995987321       -4.9144161057       -0.6655789020
 O        -9.4052144435       -4.1064123077        0.2021558145
 C        -8.5352899941       -5.9535122014       -1.0631641640
 C        -7.1236756228       -5.6053300880       -0.4436087190
 C        -6.2065516367       -4.6252688064       -1.1850233828
 O        -6.3462111792       -4.4282480131       -2.3494729270
 C        -4.9616049383       -4.0757000558       -0.4417550518
 C        -5.4378194626       -2.6066040943       -0.0430789285
 O        -6.5688727945       -2.5469760574        0.4369434201
 C        -4.4873658886       -1.2947096680       -0.5166544425
 C        -5.1608806125        0.0078909650       -0.0881397635
 C        -6.4847836913        0.2394294958       -1.0467292107
 O        -6.7796320796       -0.6575781583       -1.7868200179
 C        -7.2897025579        1.5924958800       -0.8824523531
 C        -8.6282894802        1.3441266168       -0.1877791489
 O        -9.2090039578        0.2013026922       -0.2644315240
 C        -9.4373985687        2.3834518428        0.4766246235
 C       -10.8486544066        2.6364263281       -0.0716392988
 C       -10.8307299892        3.6558945888       -1.1631594525
 O        -9.7628470636        3.8735630145       -1.6520207638
 C       -12.2001308775        4.4865722311       -1.7245882880
 C       -12.4363581283        5.5393660662       -0.5667408112
 O       -12.5786582305        5.2114593270        0.6283228845
 C       -12.4934715750        6.8288083918       -1.1282808608
 C       -12.5949525218        7.9324622204       -0.0520038501
 C       -12.7430191502        9.2644132638       -0.6301226475
 O       -12.2160253112        9.5223509877       -1.6981317118
 C       -13.6480212041       10.2905777477       -0.0456520814
 C       -12.9917287221       10.5600994867        1.2817861159
 O       -13.3704339236        9.9439724790        2.3058174654
 C       -11.6669715495       11.3979926798        1.3740149701
 C       -11.7686565519       12.4638945073        2.4811692885
 C       -11.9170667733       13.9115081441        1.8615061936
 O       -12.3063158704       14.1599018659        0.7451493018
 C       -11.5173962258       15.1239852681        2.8175173619
 C       -10.0235721113       14.8684681825        3.3044238966
 O        -9.7469143317       14.6149140538        4.4627088516
 C        -9.0883486014       14.5131743613        2.1948723104
 C       -11.5865024509       16.4581869162        2.1199935762
 C       -12.4234620335       15.0656740748        4.0742091299
 C       -14.0321061091       11.4383155730       -1.0018829141
 C       -14.9693118988        9.4006705577        0.2523413618
 C       -11.8393878167        4.9993634860       -3.1515704381
 C       -13.3651156026        3.5465646092       -1.9342533115
 C        -6.5330321818        2.6804708226       -0.0385026254
 C        -7.4719811492        1.9785848682       -2.5328677385
 C        -4.6007852181       -4.8145767002        0.8361101703
 C        -3.6527537880       -4.1323294441       -1.3291582769
 C       -12.1011950307       -4.3083009908       -0.5674330516
 C       -11.4082692757       -6.3859497506       -1.7366256723
 H       -10.7118179130       -3.4573963589       -4.7444284673
 H       -11.9138530772       -4.5873602727       -4.2044895869
 H       -10.2163754492       -5.2022304932       -4.3704436778
 H        -8.6336261731       -6.0567854491       -2.0925811955
 H        -8.8525693560       -6.7853073583       -0.6035340401
 H        -6.6596240321       -6.5602361928       -0.2365268891
 H        -7.4519001801       -5.3620360954        0.6854090625
 H        -4.4538950682       -1.3585619829       -1.5779341967
 H        -3.4657678677       -1.4373642029       -0.2877276647
 H        -4.5135007495        0.8424163134       -0.2646251389
 H        -5.4362585474        0.1640685758        0.9903016629
 H        -8.9320233976        3.3833171573        0.5470242123
 H        -9.6275090521        2.1008011985        1.5450725367
 H       -11.6240955897        2.9089971826        0.6453388275
 H       -11.1842955193        1.7091062940       -0.5535421938
 H       -13.4482565076        6.9061312824       -1.6372378365
 H       -11.5707896554        7.0423535831       -1.7379536210
 H       -11.6284681309        7.9191673010        0.5473397405
 H       -13.3450405488        7.7273124107        0.6185883013
 H       -11.5919448545       11.6384024583        0.2649531353
 H       -10.8626217755       10.7040162989        1.4431478013
 H       -11.0750820815       12.4601006890        3.3131390975
 H       -12.7427603739       12.3140207915        3.0152524933
 H        -8.6672708245       15.3330805893        1.6170653759
 H        -9.5716568601       13.8864835240        1.4519027165
 H        -8.3211471791       13.9532647329        2.6130768869
 H       -11.4709234929       17.2417976236        2.8153086950
 H       -12.6713617815       16.6752399077        1.8075977373
 H       -10.9369468751       16.5231957175        1.2897452373
 H       -12.4819230349       16.1056390772        4.5161164448
 H       -11.9724514760       14.6501145645        4.9714474064
 H       -13.5614115930       14.8715811110        3.9418206368
 H       -14.3063684770       11.0782356485       -1.9372839769
 H       -13.2983580412       12.2224011393       -0.9456563078
 H       -15.0384013271       11.7762574100       -0.6558813511
 H       -15.8966442877        9.9666935781        0.1705748742
 H       -15.0329959814        9.0602690662        1.3539798378
 H       -15.0855811755        8.6470349079       -0.6190019440
 H       -11.8412814022        4.0607102636       -3.7758770204
 H       -10.9494170058        5.5895951427       -3.1912837754
 H       -12.6297200042        5.6370627188       -3.4429775705
 H       -14.0816939962        4.2179600008       -2.3199902355
 H       -13.5977232295        2.9556031388       -1.0451789724
 H       -13.1857827571        2.7288654233       -2.6696056656
 H        -6.9772368874        3.6857715611       -0.4875051745
 H        -5.4895499113        2.7514716567       -0.1602670549
 H        -6.4098633136        2.4267908273        1.0235211524
 H        -7.8303665632        1.1471225449       -3.2891901605
 H        -6.5178316280        2.2971359986       -3.0058182437
 H        -8.2137397811        2.7751063174       -2.5763720665
 H        -3.6112610331       -4.4055949857        1.1822724748
 H        -4.4253431505       -5.8812975041        0.8095652669
 H        -5.3192795851       -4.8650600844        1.7220463815
 H        -3.1890153541       -5.1243529086       -1.1574989400
 H        -2.8819177837       -3.4225352525       -1.0017969694
 H        -3.8326736982       -4.1069101204       -2.3882931668
 H       -12.0412152094       -3.2028852361       -0.4186117056
 H       -12.1047469382       -4.7991514408        0.4187142433
 H       -12.9970613336       -4.5304320111       -1.1189012798
 H       -10.4903208688       -6.8895124518       -2.0809512509
 H       -12.1953000451       -6.3671777373       -2.4665082473
 H       -11.8547222573       -6.8815338957       -0.8172066492
 Na       -8.3446216535       -2.0372940023       -0.5920653077
