117

 C       -10.9452833837       -4.5348563775       -4.1749408046
 C       -10.7081959387       -4.0277554745       -2.6531308691
 O       -10.2151574850       -2.8915645700       -2.4962344650
 C       -10.8925602779       -4.9099982860       -1.3850334356
 C        -9.5307440023       -4.8958375815       -0.6004110659
 O        -9.2704940629       -4.0968343302        0.2872240994
 C        -8.4289839561       -5.8480548265       -1.0693090537
 C        -7.1716497578       -5.6031338730       -0.1975808291
 C        -6.2610466225       -4.7696476462       -1.1831772951
 O        -6.4230055231       -4.5318411212       -2.3703584891
 C        -4.9139038284       -4.0757530037       -0.3399518337
 C        -5.4823945046       -2.6894984567       -0.1508462895
 O        -6.5099228000       -2.5070983471        0.5030172888
 C        -4.7417127738       -1.5051637057       -0.6410542059
 C        -5.2636348886       -0.1665890641       -0.1009616173
 C        -6.4914437481        0.2799080464       -0.9248983010
 O        -6.9082288198       -0.5936279743       -1.6820662797
 C        -7.2527249528        1.5479562165       -0.8081478688
 C        -8.8124130579        1.2893279879       -0.3566743116
 O        -9.3497946073        0.2228675543       -0.5291761535
 C        -9.5092658012        2.3674327971        0.5122534335
 C       -11.0217029215        2.5901073989       -0.0244522519
 C       -10.7277568223        3.5530760031       -1.1776347192
 O        -9.7164148653        3.8234855013       -1.7274414999
 C       -12.0214381596        4.4179720729       -1.6945713525
 C       -12.3508520282        5.5980506360       -0.6502394551
 O       -12.6429357257        5.2833155868        0.4692450487
 C       -12.4894601750        6.9745056467       -1.1027430359
 C       -12.4994357737        7.9950934929        0.1167669338
 C       -12.6362534175        9.3453468050       -0.7424179709
 O       -12.1426918610        9.3966906608       -1.8391386962
 C       -13.7372650232       10.3589985611       -0.0576948616
 C       -13.1449657130       10.5639742486        1.4060027092
 O       -13.4913634881        9.9557858577        2.3197974222
 C       -11.7910623240       11.4083018907        1.4608057473
 C       -11.7714607971       12.6321045707        2.4256060871
 C       -11.8895973453       14.0218767842        1.8675623249
 O       -12.3551383381       14.2977399714        0.7447654702
 C       -11.4189215404       15.2095602841        2.7632033745
 C        -9.9330940234       14.6885287527        3.1368679489
 O        -9.7064027157       14.6200050991        4.3209183411
 C        -8.7453161480       14.5998119557        2.0978051531
 C       -11.5893787552       16.4854449130        2.0472008105
 C       -12.4555784467       15.2374343382        3.9949326708
 C       -14.0235026124       11.4940891880       -1.0238063888
 C       -15.0302353974        9.5198879325        0.1984383311
 C       -11.6585727407        4.9926746303       -3.0461736719
 C       -13.3628404069        3.6456068237       -1.7062828149
 C        -6.5680001140        2.6181596304       -0.0819823069
 C        -7.5068077422        1.9056890381       -2.2848776240
 C        -4.6269407975       -4.8545748525        0.8989802594
 C        -3.7739470951       -4.1015754378       -1.3200480628
 C       -12.1723577437       -4.2488221640       -0.6387542494
 C       -11.0654579131       -6.4072374645       -1.8207558632
 H       -10.7662731801       -3.6918161674       -4.7927107484
 H       -11.9289574650       -4.8185870276       -4.2604856755
 H       -10.2889589210       -5.2939362413       -4.2055938199
 H        -8.3185200374       -5.7346435353       -2.0980863724
 H        -8.8495591878       -6.7886476241       -0.7993671026
 H        -6.8544873110       -6.5037442329        0.3541540638
 H        -7.5431840407       -4.9925975068        0.6633828280
 H        -4.4113189505       -1.4379391530       -1.6885640762
 H        -3.7319109517       -1.6949499250       -0.2009320410
 H        -4.4246378883        0.4963357303       -0.1222457644
 H        -5.6410705150       -0.0798337089        0.8887008366
 H        -9.0054277785        3.3262341270        0.6018602158
 H        -9.5158158078        1.9625744949        1.4869981843
 H       -11.7274455134        3.0220704750        0.5236451357
 H       -11.3634496087        1.6182304364       -0.4322361560
 H       -13.4939364182        7.1894459444       -1.5951801019
 H       -11.6369451115        7.2987617007       -1.6250068433
 H       -11.5075713447        7.9018773977        0.6562069523
 H       -13.2543415127        7.8246444685        0.9256561685
 H       -11.5493185966       11.4787105167        0.3737385696
 H       -11.0526875828       10.7038421696        1.7856264719
 H       -10.7733636281       12.6784093738        2.8776415092
 H       -12.4075710620       12.5342129572        3.3465137886
 H        -8.1121378073       15.4670607954        1.9007324174
 H        -9.0483188716       14.2064169490        1.1116934903
 H        -8.1705509128       13.8047291644        2.5023598742
 H       -11.2325624469       17.3563598476        2.6361065947
 H       -12.6258859073       16.6375415679        1.9556129313
 H       -11.1744591376       16.4611417228        0.9989209108
 H       -12.9091679957       16.1795330230        4.3445768089
 H       -11.9367372552       14.8978244325        4.9763409783
 H       -13.3313771443       14.6799277885        3.7787057367
 H       -14.3616452491       11.1582474948       -2.0273489999
 H       -13.1343804938       12.0498276120       -0.9129733714
 H       -14.8922418796       12.0181416025       -0.7509571400
 H       -15.9767679246       10.1963415807        0.2997738917
 H       -14.9897776715        9.0143059978        1.1930813059
 H       -15.2747960262        8.9622120839       -0.7498554911
 H       -10.8921803066        4.2899140217       -3.5254963445
 H       -11.4000761836        6.0362387814       -2.9312406063
 H       -12.5733987378        5.0188463340       -3.6502557311
 H       -14.0780192835        4.4597794528       -1.9174106315
 H       -13.4588366025        3.0084173496       -0.7728159748
 H       -13.3618629959        2.8142355997       -2.4382152586
 H        -6.9700687160        3.5368269611       -0.3454022905
 H        -5.4176501711        2.6517339450       -0.1946081546
 H        -6.4210655400        2.2669987717        0.9612541481
 H        -8.1372191266        1.1115835020       -2.7772787351
 H        -6.5735661884        1.8885683012       -2.9657842476
 H        -8.1321971801        2.8708854805       -2.3711872320
 H        -3.6705308824       -4.6428643277        1.3585119805
 H        -4.6457374042       -6.0088806334        0.9812581363
 H        -5.3905397579       -4.6198624418        1.6593997290
 H        -3.3331346793       -5.1535415585       -1.4447810247
 H        -2.8920932960       -3.4798239353       -1.0260576348
 H        -4.1293727216       -3.8100580243       -2.2528642569
 H       -11.9088173280       -3.1719405049       -0.5314700623
 H       -12.1591388315       -4.6496018073        0.3842447432
 H       -13.1743744298       -4.3556838003       -1.1735807511
 H       -10.1324461143       -6.7964828399       -2.0653291151
 H       -11.7822732252       -6.3858349483       -2.6163870892
 H       -11.5071813646       -6.9969435868       -1.0285688545
 Na       -8.4315328291       -2.0709734181       -0.6168621203
