117

 C       -10.9810598675       -4.6437234836       -3.9723454751
 C       -10.4792168249       -4.0433862504       -2.5663550443
 O       -10.0916934630       -2.8960517126       -2.4877922518
 C       -10.7429443241       -4.9957075019       -1.4021718105
 C        -9.5440588660       -4.8678483892       -0.5155661482
 O        -9.3999414200       -3.9537217557        0.3167829799
 C        -8.4223466018       -5.8428057492       -0.8834408926
 C        -7.0619145264       -5.5393557464       -0.1892852845
 C        -6.1522388706       -4.9054290981       -1.0554872454
 O        -6.4391774521       -4.6822237422       -2.2271972687
 C        -4.9804276837       -4.1841939181       -0.4287163099
 C        -5.5105543201       -2.6946863057       -0.0520442327
 O        -6.4653550439       -2.5739141989        0.6734061891
 C        -4.7027523180       -1.5360964344       -0.6198165774
 C        -5.3083854264       -0.2522395434       -0.0904730858
 C        -6.6993625936        0.0099726512       -0.7878838225
 O        -7.0916141556       -0.7203163269       -1.7147827564
 C        -7.3600027868        1.5086121456       -0.7543562770
 C        -8.8613967585        1.1193267088       -0.2555413796
 O        -9.4187212050        0.2280486776       -0.7753274846
 C        -9.5303071845        2.1880489351        0.5796368881
 C       -10.9465425944        2.6524266351       -0.0494828628
 C       -10.8440618406        3.5920426123       -1.2246087408
 O        -9.6789696741        3.7254959967       -1.6924382095
 C       -11.9926506658        4.4284821127       -1.7696515586
 C       -12.2736137620        5.5580257842       -0.5546430168
 O       -12.6479418833        5.1379466436        0.5174022581
 C       -12.3563256237        6.9966554324       -1.1349314075
 C       -12.3117217237        8.0858954928        0.0040878397
 C       -12.7847242778        9.3688645964       -0.7338454790
 O       -12.1889268368        9.6611097489       -1.7554142787
 C       -13.7772316160       10.2952728994       -0.0610658393
 C       -13.1845011893       10.6511951398        1.3897434924
 O       -13.6076341923       10.0988642940        2.3798601494
 C       -11.8606161754       11.5447585184        1.4348831978
 C       -11.8024278928       12.6449263857        2.4361256705
 C       -11.9631075150       14.0511774581        1.7247314471
 O       -12.4326729170       14.2642356657        0.6519953382
 C       -11.4203753882       15.2468421034        2.6408183489
 C        -9.8422243492       14.8524724455        3.1535582790
 O        -9.5456029978       14.5439512042        4.2770494914
 C        -8.7538718644       14.7697830032        2.1246164713
 C       -11.4622049723       16.6162268630        1.8575940404
 C       -12.2177944615       15.2825708081        3.9450702926
 C       -13.8696802802       11.5984243917       -0.9385248900
 C       -15.2015855510        9.6333047369       -0.0063535951
 C       -11.5519323328        5.0009302574       -3.1732597668
 C       -13.3582037734        3.5896470677       -1.5486685674
 C        -6.5845006575        2.6934338193       -0.0140061515
 C        -7.5112271622        2.0081217469       -2.2682036356
 C        -4.6774978809       -4.8269859087        0.9765437988
 C        -3.7889004074       -4.1596195144       -1.4388300192
 C       -11.9600519142       -4.3802034117       -0.7537157290
 C       -11.1632285719       -6.4463909626       -1.9339278565
 H       -11.0024239610       -3.8809723111       -4.6946493862
 H       -12.0705409153       -4.9317642679       -3.7517107547
 H       -10.3719701844       -5.5101065145       -4.0403393703
 H        -8.2985841155       -5.6219451187       -1.9725559337
 H        -8.7632565407       -6.9844043226       -0.7417403423
 H        -6.6297216154       -6.5603721686       -0.0519800283
 H        -7.1992104017       -5.2024222162        0.7427858929
 H        -4.8423802924       -1.5802775291       -1.7728467751
 H        -3.5612386206       -1.6365227187       -0.6231279788
 H        -4.6384598933        0.6306002436       -0.1755754604
 H        -5.6145283182       -0.2253842260        0.9239551113
 H        -8.9410555550        3.0401939745        0.7300930840
 H        -9.8039481515        1.8653454953        1.5519676340
 H       -11.3994247747        3.4238240018        0.7276794127
 H       -11.6019877475        1.8221388795       -0.1565364156
 H       -13.3977509095        7.1450319482       -1.4391587044
 H       -11.6140872638        7.2608261793       -1.8595408756
 H       -11.3372182535        8.2145630379        0.4611110386
 H       -12.9992598195        7.7305548863        0.8847853286
 H       -11.6310783272       11.7239850129        0.4308307643
 H       -11.1047758771       10.7430607107        1.7379403259
 H       -10.7309662526       12.6836995233        2.8031229259
 H       -12.3666670767       12.5811749599        3.3571255684
 H        -8.0456407716       15.6026716805        2.1772282532
 H        -9.1017929313       14.7423022031        1.0919907863
 H        -8.1529661814       13.7847830392        2.2827423699
 H       -10.8373238353       17.3867570690        2.4400376465
 H       -12.4419017342       16.9964770163        1.6010993405
 H       -10.9657996977       16.4207551872        0.8778253734
 H       -12.7211172340       16.1735371581        4.2804158646
 H       -11.6173184044       14.9723344474        4.7948004554
 H       -13.0775554163       14.6895066956        3.8536592507
 H       -14.3578015512       11.3894373625       -1.9045761399
 H       -12.8581912254       11.9789147782       -0.8884452691
 H       -14.6035684390       12.2452331588       -0.5313194676
 H       -15.9164954990       10.4037332224        0.3844236219
 H       -15.2196347424        8.8520097383        0.7459252106
 H       -15.5986480587        9.4313283631       -0.9761944425
 H       -10.6343160754        4.5349290404       -3.3250833178
 H       -11.6064801672        6.1484682614       -3.1710869495
 H       -12.2490507708        4.6610111760       -4.0020714916
 H       -14.2032533233        4.3355182887       -1.7611992366
 H       -13.3327013528        3.0663028959       -0.6046595962
 H       -13.2930484080        2.7038815226       -2.1622820510
 H        -7.0504716410        3.6293569655       -0.1001398701
 H        -5.5246855047        2.7438146036       -0.3219386885
 H        -6.2929722358        2.2965785189        0.9231947663
 H        -8.2631030642        1.4447143091       -2.7944989931
 H        -6.5712804829        1.6833943092       -2.7644211118
 H        -7.7734539567        3.0587572587       -2.4510050500
 H        -3.7615797383       -4.4616587781        1.4412629840
 H        -4.5736728870       -5.9058413647        1.1335755384
 H        -5.4294366795       -4.5509203196        1.7000718029
 H        -3.3942340900       -5.0478572281       -1.8518681099
 H        -2.9798080869       -3.7476830198       -0.8336812302
 H        -3.9857861534       -3.4169197635       -2.2900022873
 H       -11.6432915759       -3.3507968715       -0.5475423278
 H       -12.0259408374       -4.8782289374        0.2407802085
 H       -12.9095446706       -4.3772399921       -1.3600583134
 H       -10.4417871500       -6.8145635080       -2.6269734475
 H       -12.2062874825       -6.4212622933       -2.1816491799
 H       -11.0313782308       -7.0679941732       -1.1233606842
 Na       -8.6833076661       -2.0439498942       -0.7605229624
