117

 C       -10.9873904950       -4.5183443473       -4.0286991796
 C       -10.3920599474       -4.0777841170       -2.6576633062
 O        -9.9034531477       -3.0191516636       -2.5507138551
 C       -10.7343364060       -5.0219041518       -1.3733835973
 C        -9.5276665206       -4.8580600502       -0.5347922594
 O        -9.5516594101       -3.9363494686        0.2789587927
 C        -8.4802848290       -6.0962253241       -0.6122660324
 C        -7.0671286899       -5.7755454169       -0.0322140688
 C        -6.1867029370       -4.8777696199       -1.0334989304
 O        -6.3469878944       -4.8249102284       -2.2052471195
 C        -4.9083684163       -4.0578383265       -0.3367376702
 C        -5.4163774696       -2.7240434386        0.0071851293
 O        -6.3981550966       -2.7055357165        0.7506895745
 C        -4.8266454510       -1.4936432031       -0.5694396018
 C        -5.4514194639       -0.1719530012       -0.1908499264
 C        -6.6822543813        0.0637546588       -0.9370828664
 O        -7.1926556284       -0.8416498931       -1.5568616863
 C        -7.4094842532        1.3178681504       -0.8151063356
 C        -8.9402570415        1.2678545648       -0.4452098814
 O        -9.5255119631        0.2328145273       -0.8012303839
 C        -9.6835631882        2.0806163528        0.6570139835
 C       -10.9381225090        2.6868748718        0.1573077629
 C       -10.7302962197        3.6366327010       -1.1194097375
 O        -9.6203211610        3.6807384706       -1.7135318282
 C       -11.9320727327        4.3667822443       -1.6996613043
 C       -12.2604782703        5.4398024536       -0.6345977994
 O       -12.4747596753        5.1538390850        0.5373848979
 C       -12.2432161464        6.8768210388       -1.0696856324
 C       -12.2717704200        8.1364473104       -0.0879540596
 C       -12.7389561222        9.4837097023       -0.6752561643
 O       -12.2566928154        9.9645213407       -1.6936668451
 C       -13.7959495760       10.4135572515        0.0235491529
 C       -13.2381421387       10.7202459661        1.3253217304
 O       -13.7829232424       10.3144355411        2.4101642609
 C       -11.8908372740       11.5235021148        1.3240071770
 C       -11.8622435067       12.6260484297        2.3583826202
 C       -11.8896554290       14.1275790950        1.7199695007
 O       -12.4544014187       14.1769671430        0.6609790612
 C       -11.2101388748       15.2104196719        2.6426612613
 C        -9.7958340328       14.9803371949        3.0531435690
 O        -9.6268170956       14.5719574137        4.1893055999
 C        -8.7665800672       15.0100303156        1.9473996175
 C       -11.1956787673       16.5909171090        1.7888632257
 C       -12.0590727282       15.4137123251        3.9482664893
 C       -13.8000854483       11.8073093695       -0.8736689196
 C       -15.2640662563        9.8089343312       -0.1130912535
 C       -11.7674704013        4.8321804582       -3.1554384542
 C       -13.2640905544        3.5504095814       -1.7377155365
 C        -6.6939592114        2.4000613270        0.0928948394
 C        -7.4233061727        2.0103721811       -2.2421133090
 C        -4.4885912775       -4.8089658135        0.9859278955
 C        -3.7387294914       -4.2334700391       -1.3984234281
 C       -11.9794876663       -4.4212312078       -0.6640305453
 C       -11.1774283279       -6.5075059238       -1.7848694418
 H       -11.1107235048       -3.5689606629       -4.6134895067
 H       -12.0096950861       -4.8262495886       -3.7214590827
 H       -10.3027639985       -5.4575090613       -4.2588088047
 H        -8.2173629172       -6.0583007303       -1.7843243187
 H        -8.9673738826       -7.0871364468       -0.3173969668
 H        -6.6307527085       -6.7241960940        0.1176179106
 H        -7.2380634165       -5.3607591516        0.9793055990
 H        -4.7170246752       -1.6633971283       -1.6720719603
 H        -3.7373555554       -1.3744944142       -0.3453963926
 H        -4.6787555473        0.6364308848       -0.2354035534
 H        -5.8263924658       -0.1219217291        0.9033181315
 H        -9.0984273154        2.8609518902        1.1181882948
 H       -10.0107924820        1.3889837133        1.4723872963
 H       -11.4965647266        3.1993394977        1.1157093128
 H       -11.5689824425        1.8559624632       -0.1876016367
 H       -13.0147573072        7.0529862817       -1.7215227082
 H       -11.2096698733        7.0164095930       -1.5331685728
 H       -11.2511405524        8.2665715542        0.2675463658
 H       -12.7867561085        7.9869761570        0.8371033953
 H       -11.8271638327       11.7751988440        0.2698544213
 H       -11.0907308728       10.7314872759        1.5046570386
 H       -11.1774234173       12.4643671537        3.2294383886
 H       -12.8350259372       12.7456705498        2.8169867941
 H        -8.0719355877       15.8036939550        2.3001166092
 H        -9.1217557583       15.4457957839        1.0007885966
 H        -8.2108403145       14.0884757882        1.6496558860
 H       -10.6438771072       17.4016208415        2.2780770488
 H       -12.2825555143       16.8823441102        1.4018684871
 H       -10.7403438969       16.3991730660        0.8378287119
 H       -12.3945425594       16.4182424692        4.0458981601
 H       -11.6052618565       15.1205399986        4.7941649817
 H       -13.0731303085       14.9916368969        3.8254175654
 H       -14.4822141027       11.6014791746       -1.6210090214
 H       -12.7665554375       12.0380598697       -1.1445944577
 H       -14.3716981937       12.6380124743       -0.3491399949
 H       -15.9198397968       10.2874218063        0.4746218672
 H       -15.2028842307        8.7818956655        0.2772898639
 H       -15.7297879958        9.8686350856       -1.0785149224
 H       -10.7101223141        4.7469164163       -3.2878380818
 H       -12.2698792186        5.7626512387       -3.3598134043
 H       -12.1577168113        4.0612523550       -3.8129586900
 H       -13.9896995526        4.1809368583       -2.2009599728
 H       -13.5706890245        3.0988735028       -0.8251592783
 H       -12.9254131296        2.6873450215       -2.2816484216
 H        -7.3665401728        3.3552913806        0.0671804099
 H        -5.8226382235        2.6120084334       -0.3521594888
 H        -6.3606599780        2.0441334192        1.0462546412
 H        -8.2372619847        1.6939224359       -2.8802446809
 H        -6.5412199782        1.6842071499       -2.6626248606
 H        -7.4771122089        3.0235024688       -2.2906146457
 H        -3.5800637208       -4.4379909879        1.4732740150
 H        -4.1971899091       -5.7634143257        0.8063269072
 H        -5.1457833478       -4.7988742501        1.8706711198
 H        -3.6427799525       -5.2184515121       -1.7781242187
 H        -2.7712210727       -4.0752805360       -0.9548763457
 H        -3.8588862444       -3.5114723164       -2.2649019991
 H       -11.7379934335       -3.4618449114       -0.1966871658
 H       -12.2929953289       -5.1402870862        0.1014377242
 H       -12.7269646011       -4.2339516814       -1.4006630864
 H       -10.6442349624       -6.7999653061       -2.6815807397
 H       -12.2342934991       -6.6120276171       -1.7118298567
 H       -10.6301903731       -7.1755520373       -1.1090085994
 Na       -8.9679055461       -1.9978035800       -0.9123521481
