117

 C       -11.3257755984       -4.7844146439       -4.1601623553
 C       -10.4417862622       -4.5932682360       -2.8548041383
 O        -9.6422807566       -3.6470608996       -2.9704983029
 C       -10.5575481855       -5.2202491411       -1.4464246915
 C        -9.3175324255       -4.9395061490       -0.5252990589
 O        -8.9442399228       -3.8840520598       -0.1635902658
 C        -8.5139747640       -6.0331120725        0.0372748067
 C        -7.1661648533       -5.5922915671        0.5859927212
 C        -6.2182524011       -5.3104673383       -0.4982179851
 O        -6.4011445312       -5.7532917821       -1.6421330740
 C        -4.9882552401       -4.4125187051       -0.1622247992
 C        -5.4248661000       -2.9070547703        0.1907733422
 O        -6.1551886211       -2.7058685243        1.1118276426
 C        -4.9049221846       -1.7730254309       -0.6909094885
 C        -5.4557255981       -0.4349110687       -0.1971357852
 C        -6.9910185794       -0.2957281446       -0.6481793177
 O        -7.5565123367       -1.2973197726       -0.8742272433
 C        -7.5066767898        1.1146512053       -0.6862455407
 C        -9.0765873756        1.0963049873       -0.3500249897
 O        -9.9431971326        0.3912002509       -0.9735405497
 C        -9.8777929734        1.8638190576        0.8730458238
 C       -11.0730469686        2.6587273078        0.2423987076
 C       -10.7780608746        3.4996582034       -1.0598277345
 O        -9.6503205715        3.7540960865       -1.2534644026
 C       -11.9812094933        4.5498381518       -1.6725304825
 C       -12.0388949705        5.9278912477       -0.7858398475
 O       -12.0749880090        5.7811216041        0.3957570458
 C       -12.2560357873        7.2419778923       -1.4713946329
 C       -13.0561186662        8.1292001136       -0.5663219836
 C       -12.8208956336        9.6402555382       -0.7503901780
 O       -11.9084248246        9.9374270891       -1.5003344123
 C       -13.7934060312       10.6879788488       -0.1112459437
 C       -13.4147352737       11.2437599446        1.4037020488
 O       -14.2232101582       11.4208692104        2.1921806239
 C       -11.9823853220       11.6114798350        1.6809934488
 C       -11.8269359915       12.8604946605        2.4590576916
 C       -11.6549593560       14.1246877613        1.6500235574
 O       -11.9753053805       14.0118075113        0.4504196707
 C       -11.1799004894       15.5738567065        2.3024415777
 C        -9.5212951852       15.0556023393        2.5611914364
 O        -9.2296279368       14.2940856660        3.4684031336
 C        -8.3968348499       15.5908198614        1.5959097000
 C       -11.2407718219       16.6886911262        1.2960107929
 C       -11.6599779974       16.0233952959        3.7473852764
 C       -13.6640920044       11.9842616600       -1.0660639362
 C       -15.2983340214       10.2341673887        0.0260527242
 C       -11.6775847036        4.6147828547       -3.1507801457
 C       -13.4778182789        4.2751503957       -1.3947935711
 C        -6.7946103330        2.0311270057        0.3885507786
 C        -7.4285342608        1.5168303187       -2.2253100419
 C        -4.2554711641       -4.8871035258        1.1021342245
 C        -4.0878873637       -4.6294037978       -1.3778414145
 C       -11.7738744663       -4.5856707923       -0.8492116759
 C       -10.6975189839       -6.6891160305       -1.4722159255
 H       -11.0042402367       -3.9367943800       -4.8570100740
 H       -12.3249557489       -4.2222969021       -3.8999702027
 H       -11.2298755934       -5.8512213210       -4.3836376113
 H        -8.2862366676       -6.7294743539       -0.8006951843
 H        -9.0726049062       -6.5576679930        0.9018126566
 H        -6.9643912374       -6.3335112642        1.3581238887
 H        -7.4173467396       -4.5754002619        1.0343447716
 H        -5.3581401436       -1.7700180047       -1.6816278847
 H        -3.8340434904       -1.9519476336       -0.8871808098
 H        -4.8622283260        0.4157244431       -0.5829683046
 H        -5.5036143734       -0.4574663432        0.9610395895
 H        -9.1901611377        2.6957843651        1.2531159239
 H       -10.2235554051        1.1713974845        1.6613539525
 H       -11.3883446182        3.3578046120        0.9303883875
 H       -11.9526933412        1.8843232192        0.0039199600
 H       -12.7260979143        7.2208002651       -2.4844263750
 H       -11.2538295113        7.6117416377       -1.6709457362
 H       -12.7471681442        7.9153640959        0.4485003269
 H       -14.0100211497        7.7086997462       -0.4774722443
 H       -11.4605668213       11.7718831798        0.6633684146
 H       -11.4912936819       10.8969312825        2.3220308723
 H       -10.9915373417       12.9658198606        3.0814880434
 H       -12.6679209151       13.1124772805        3.1363232972
 H        -7.6391887766       15.8583493214        2.3980988379
 H        -8.6448809452       16.4708505239        0.9316094078
 H        -7.9042014345       14.8729454345        0.9451627977
 H       -10.6697851348       17.5196053117        1.7552697853
 H       -12.2379330512       16.7952606059        1.0828616832
 H       -10.6346201970       16.5192388323        0.3333782352
 H       -10.9101863744       16.6921141405        4.0712159032
 H       -11.7989104651       15.1503464476        4.4455733878
 H       -12.5315217527       16.5648947388        3.7336124657
 H       -13.7877668634       11.6136677081       -2.1305816567
 H       -12.6625198427       12.3640454597       -1.1035796130
 H       -14.3763320758       12.6453953859       -0.6282985747
 H       -15.7490770625       11.0964349757       -0.4631482889
 H       -15.7213257750       10.1743252562        0.9480078288
 H       -15.6130450591        9.3520990387       -0.3604419905
 H       -12.6111999412        4.8092568138       -3.7098737310
 H       -11.3083371342        3.6202823149       -3.3580143401
 H       -10.8777759292        5.2968613778       -3.3747483190
 H       -14.1527555972        5.0810074728       -1.5558804055
 H       -13.6369630360        4.1316970398       -0.3214473379
 H       -13.7671900529        3.4611950274       -2.0336711653
 H        -7.3971048885        2.7968240498        0.6359795578
 H        -5.8728605891        2.5023353888       -0.0889633129
 H        -6.8843701602        1.4905957486        1.3231023302
 H        -7.9858827402        0.8817755762       -2.7609087627
 H        -6.3982865436        1.5319280235       -2.3927636936
 H        -7.7097544645        2.5027904754       -2.5393036567
 H        -3.3133123551       -4.4899456469        1.2137081111
 H        -4.0433913916       -5.9687335492        1.2050199574
 H        -4.6268344762       -4.5425505940        2.0070955253
 H        -3.9560830593       -5.7230623835       -1.6323877760
 H        -3.0990633075       -4.2102492672       -1.1695833001
 H        -4.3458668113       -4.1283720794       -2.2526599685
 H       -11.8448411298       -3.5414049137       -1.2027456915
 H       -11.8543763610       -4.6449314021        0.2269600182
 H       -12.7031365108       -5.0768330958       -1.2444497004
 H        -9.7987895739       -7.2952499596       -1.7453925719
 H       -11.4677263480       -7.0470231244       -2.2063994525
 H       -11.0763179537       -6.9628654115       -0.4759629139
 Na       -9.6534792928       -1.8248796750       -1.3643921287
