117

 C        -5.4644968412       -1.4746947231        9.6918101178
 C        -6.7910148229       -1.3405990215        8.9084010374
 O        -7.7601156185       -0.8248535382        9.4586636445
 C        -7.1138717954       -1.9634126194        7.5437416858
 C        -6.2900089274       -1.0913118482        6.4318232341
 O        -5.2498502444       -1.4979328110        5.9717317707
 C        -7.0172241696        0.1538249073        5.9377663622
 C        -6.3104725185        1.0780229735        4.8573455743
 C        -6.9640807317        2.4615461044        4.8991364897
 O        -8.1130129915        2.6489868252        5.0565201048
 C        -6.0272362380        3.7412353623        4.5929937648
 C        -5.9365198991        3.5445206618        3.1098102810
 O        -5.5210285157        2.4893000766        2.6356309622
 C        -6.7018312458        4.4487313330        2.0695518634
 C        -6.4473805160        4.2089133943        0.5632589899
 C        -7.6714038801        3.8569917352       -0.2437979889
 O        -8.0447155516        4.6237765659       -1.1860117839
 C        -8.4353290296        2.5067225711        0.0218596063
 C        -9.7516145381        2.9225350215        0.7623210812
 O        -9.7502107007        3.8233793897        1.6172772117
 C       -11.0620448086        2.1701268262        0.4669095810
 C       -12.2656926043        3.0195546781        0.9808092257
 C       -12.3786488651        4.3610754844       -0.0004978209
 O       -11.3852185841        4.9879214209       -0.2154289070
 C       -13.6930993811        4.8688012937       -0.6929235238
 C       -13.6628022383        4.3544177934       -2.1530638492
 O       -12.5998046994        3.9733985783       -2.6063963241
 C       -14.9178037147        4.2785500986       -3.0548769449
 C       -14.7893646967        4.8804188134       -4.4605061466
 C       -15.1325066516        6.3810638004       -4.5612856249
 O       -15.8229598817        6.7782708151       -3.6696573048
 C       -14.7430925552        7.1863616377       -5.8300629610
 C       -13.2525658914        6.8030174906       -6.2387201594
 O       -12.9398359775        5.9407512710       -7.0234585744
 C       -12.1553223721        7.6457270732       -5.5376058551
 C       -10.7657425989        7.1856279439       -6.0171632976
 C        -9.9646109673        6.4483684663       -4.9514869070
 O       -10.2393641721        6.5006323889       -3.7663450775
 C        -8.6532209664        5.6819729704       -5.3302654229
 C        -8.9734439014        4.1431216395       -5.2646959694
 O        -9.3158552751        3.5755261563       -4.2644830816
 C        -8.6588935321        3.2766337533       -6.4844662010
 C        -8.1073328472        6.2276454418       -6.6867870376
 C        -7.5856825841        6.1259588623       -4.2213250082
 C       -15.6949158549        6.9897051030       -7.0971947097
 C       -14.8698168444        8.6466736595       -5.3422043676
 C       -14.8412987731        4.2115263077        0.0202847203
 C       -13.7933988526        6.4601018888       -0.6881458974
 C        -8.8367781072        1.8873537823       -1.4133890839
 C        -7.7305492566        1.3146312656        0.6493281899
 C        -6.6024462215        5.1157121800        5.0446811012
 C        -4.6229389943        3.5785835864        5.3099322604
 C        -6.6989370613       -3.3631665989        7.4079303640
 C        -8.5706114617       -1.9122363157        7.0563177017
 H        -5.5190052907       -0.9227117988       10.6280256597
 H        -4.6293208878       -1.2763554019        8.9642295098
 H        -5.2662331547       -2.4468344712       10.0754499723
 H        -7.4136067015        0.8000752762        6.6297691228
 H        -7.8186999415       -0.1505953192        5.3244611515
 H        -6.5853336045        0.6344847798        3.9282116343
 H        -5.2273674244        1.1905285392        5.0121596606
 H        -6.3961522585        5.4498527156        2.3692924100
 H        -7.7864410863        4.4241774417        2.1588393252
 H        -5.7669230032        3.3523644261        0.3398710281
 H        -6.1117016137        5.2061074395        0.0968839949
 H       -10.9461230027        1.1868573802        0.9109701867
 H       -11.3015740457        1.9638760719       -0.5961925969
 H       -12.1788142855        3.0953198740        2.0313612968
 H       -13.2177323396        2.4978739939        0.8178842766
 H       -15.7064245128        4.8843108160       -2.5666108597
 H       -15.1250079463        3.2643081791       -3.0439522907
 H       -15.5264624110        4.2204645687       -5.1037842176
 H       -13.7997224343        4.6412521051       -4.9372318248
 H       -12.2600157025        7.5509435562       -4.4763812990
 H       -12.2641585752        8.6853361181       -5.7059097497
 H       -10.2063515382        8.1603387089       -6.1793939658
 H       -10.5291237772        6.5886731316       -6.8339315376
 H        -9.1847947474        2.3162269377       -6.3664197738
 H        -7.5592927716        3.2167816959       -6.4669585631
 H        -8.9019918150        3.8837398773       -7.3171376291
 H        -7.8277308331        7.2748151680       -6.6853030865
 H        -8.6762919495        5.9033176238       -7.5428440768
 H        -7.1477614534        5.7590232473       -6.8719838887
 H        -7.9232812771        5.5557184569       -3.3933410016
 H        -7.6612465468        7.2505217664       -4.1230169220
 H        -6.5570546336        6.0895367052       -4.3985526678
 H       -15.5747254940        5.9192950492       -7.4629476629
 H       -15.4562542168        7.8018668122       -7.8557028443
 H       -16.7216168896        7.1161088770       -6.8561012574
 H       -14.4228015228        9.3810474653       -6.1252496463
 H       -14.3591752108        8.8282964157       -4.4568456245
 H       -15.8766799820        8.9192240896       -5.0627892774
 H       -14.6898038950        4.1971983758        1.1111858024
 H       -14.8551277864        3.0883587231       -0.1998078656
 H       -15.8233739896        4.4649125383       -0.2959885314
 H       -14.0797279475        6.7082588654        0.3247326765
 H       -14.5024336243        6.8493875325       -1.3654088271
 H       -12.8776383779        6.9336782894       -0.8495727225
 H        -9.3135999627        0.9804826099       -1.1963695499
 H        -7.9417355343        1.6682449250       -2.0180731595
 H        -9.4571428455        2.7019818812       -1.8526545944
 H        -7.5992410951        1.4210079762        1.7434973942
 H        -6.7516959350        1.2474364983        0.2282004863
 H        -8.3940276001        0.4075134075        0.3887538605
 H        -6.4110622819        5.3078818689        6.1025477510
 H        -7.5726610105        5.3785200015        4.7400049317
 H        -5.8525349103        5.7977783658        4.6101370295
 H        -4.6740753888        3.4508352320        6.3972249814
 H        -3.9707000749        4.4083927702        5.2455429271
 H        -4.0140198550        2.7585701963        4.8956965453
 H        -5.6224806336       -3.4630390374        7.4666275207
 H        -7.1606164486       -3.7868961204        6.5356094119
 H        -7.0806953974       -3.9423744909        8.2616484370
 H        -8.9218073335       -2.9828494055        7.0550462707
 H        -8.5626480030       -1.5154957926        6.0549918942
 H        -9.3387753931       -1.4786922697        7.7830925343
 Na      -10.2653335269        4.8061884601       -2.2323554479
