117

 C       -10.8314480430       -5.9213070660       -4.0341985049
 C       -10.5857155693       -4.9430365206       -2.9098253719
 O       -10.4375893589       -3.7619939802       -3.0129296391
 C       -10.6205992666       -5.6451010536       -1.5300048124
 C        -9.5409488347       -4.9454274736       -0.5391531728
 O        -9.0280227518       -3.9455005616       -1.0144666466
 C        -8.7604765700       -5.7195224952        0.5297728373
 C        -7.4954486368       -5.0705793106        1.0646589208
 C        -6.4373042931       -5.2696672592        0.0067817789
 O        -6.6796968727       -6.0062663613       -0.9192463117
 C        -5.0093664082       -4.5761932890        0.2295358871
 C        -5.1725156774       -3.1711892782        0.4783392493
 O        -5.2215005995       -2.6983155180        1.6013365291
 C        -5.4962290505       -2.2705195328       -0.7157023248
 C        -5.8232599276       -0.7657560322       -0.2684325109
 C        -7.3210137305       -0.5611888845       -0.1920629695
 O        -8.0018107325       -1.4932591576        0.1785289904
 C        -7.8494925525        0.9249101433       -0.4616807062
 C        -9.3573570239        1.0533506018       -0.3116565326
 O       -10.0289937072        0.2067763164       -0.8038599980
 C        -9.9846453152        2.1121717864        0.6604616996
 C       -11.2360732211        2.9368107036        0.2539595779
 C       -10.8706710068        3.8542234445       -1.0692576994
 O        -9.7583553008        3.6925522526       -1.5203540957
 C       -11.9198418987        4.9025706881       -1.4989903495
 C       -11.9082027876        6.2389593680       -0.5179736213
 O       -11.4519489350        6.1961987897        0.5454027836
 C       -12.7296031415        7.2926015749       -1.1177421569
 C       -13.2943202540        8.1927619498        0.0477931382
 C       -12.9582883610        9.6673366731       -0.4142979775
 O       -11.8910418153        9.8987926755       -0.8806150376
 C       -13.8431698328       10.8669699600       -0.3830809846
 C       -13.4546241401       11.6526511969        1.0736151464
 O       -14.3373174146       12.1728619867        1.7073880431
 C       -11.9657277066       11.6942071767        1.3094946581
 C       -11.6685427663       12.9930078883        2.1237267094
 C       -11.3538349471       14.2938367098        1.2260064095
 O       -11.4063000950       14.3118095457       -0.0241319873
 C       -10.6938031256       15.6142031728        2.0023799041
 C        -9.1364307783       15.4160896835        2.0152456737
 O        -8.6935902186       14.4069503723        2.5959176532
 C        -8.0102265255       16.2437787887        1.2818305164
 C       -11.0809127946       16.8019040495        1.0230424175
 C       -11.2151569475       15.7134604393        3.4619850067
 C       -13.4560834958       11.8534869418       -1.5260599523
 C       -15.5147386055       10.6942417794       -0.4665514609
 C       -11.5055346163        5.2125765229       -2.9435413969
 C       -13.3277285674        4.4638579544       -1.2302505333
 C        -6.9324063991        1.8969569926        0.3121387003
 C        -7.6014197243        1.2629211080       -1.9377327074
 C        -4.2550116947       -5.2756238973        1.4081892560
 C        -4.2712754530       -4.8215257081       -1.1957282048
 C       -12.0589138937       -5.2549405288       -1.0369314955
 C       -10.4441250209       -7.2267700194       -1.5556026401
 H       -11.8160127943       -6.1740554847       -3.7546975214
 H       -10.2280777329       -6.7148238047       -3.6949507839
 H       -10.6489701437       -5.6494413121       -4.9840544020
 H        -8.4759127406       -6.6392306998        0.0779252720
 H        -9.4884888998       -5.9580956505        1.1830461921
 H        -7.3007644530       -5.5098772352        2.0438838673
 H        -7.4196006080       -3.9449067702        1.1853243038
 H        -6.3266316972       -2.5395424286       -1.2575470259
 H        -4.7307924204       -2.0604553608       -1.3817499345
 H        -5.3133174797       -0.2149228229       -1.0910345101
 H        -5.4188586594       -0.5571070708        0.7389758125
 H        -9.2905830135        2.7465006828        1.2513989881
 H       -10.3111367298        1.2585591121        1.3808034509
 H       -11.3380613506        3.5477386154        1.1176059455
 H       -12.0873550938        2.2798681654        0.0574807567
 H       -13.4384419935        6.9531853364       -1.7896047846
 H       -12.2537896084        7.9764155465       -1.8092138710
 H       -12.8921130600        7.9093689739        1.0502037712
 H       -14.3386486281        7.9801011039       -0.0337182821
 H       -11.3060366746       11.5540471439        0.4614918904
 H       -11.6652687873       10.9398561168        2.0524552554
 H       -10.7083169754       12.9865074773        2.7258514368
 H       -12.4980822774       13.2709630960        2.7549929274
 H        -7.2326978944       15.6253236801        0.8319570682
 H        -7.7233136087       17.0553466798        2.0169920716
 H        -8.3944440054       16.6898796810        0.3706840267
 H       -10.5358982721       17.6936399351        1.0717722512
 H       -12.1449883184       17.1472586816        1.1488326542
 H       -10.8796678958       16.2159046424        0.1477932908
 H       -10.5356986983       16.2922093871        4.0370442938
 H       -11.3054474219       14.6815432106        3.9462452784
 H       -12.2489991272       16.0128655364        3.3415436433
 H       -14.2134839245       11.7445181304       -2.2530536209
 H       -12.5085858775       11.5714727151       -1.9854743308
 H       -13.2728253099       12.9096104230       -1.1671148353
 H       -15.8115355665        9.6201770517       -0.4017220094
 H       -15.9641442142       10.9774736905       -1.4085704790
 H       -16.1147587378       11.0686331466        0.3517771792
 H       -10.3997912784        5.3062091879       -3.0654332562
 H       -11.9933457668        6.0123634756       -3.3015307969
 H       -11.8427420798        4.4154747914       -3.5685678727
 H       -14.0306130334        5.2300974399       -1.3303940163
 H       -13.3098456300        4.0073208953       -0.2638256263
 H       -13.7325595371        3.7012849188       -1.9120010292
 H        -7.4413323709        2.8362264626        0.5385535174
 H        -5.8854394094        2.1938657581       -0.2085089339
 H        -6.7530936012        1.2832500993        1.2924471923
 H        -8.0086072499        0.5734483296       -2.6442784717
 H        -6.5763042901        1.3037862542       -2.3095769766
 H        -8.0194754907        2.2391550043       -2.0425778984
 H        -3.1810657519       -5.1232336229        1.2643987551
 H        -4.3837668450       -6.3314458315        1.4762886212
 H        -4.5931763297       -5.0949190322        2.4226039467
 H        -4.2733574558       -5.8916680419       -1.5002674294
 H        -3.2334175737       -4.4615449350       -1.2898228323
 H        -4.7843690024       -4.3089755940       -1.9552825595
 H       -12.0685361604       -4.2024570214       -0.7489282642
 H       -12.3399049145       -5.6979717225       -0.0656675223
 H       -12.8620246337       -5.4318774839       -1.6967718259
 H        -9.5824959120       -7.5395247756       -2.2253491010
 H       -11.3737562494       -7.7751319881       -1.9156331297
 H       -10.3905147839       -7.5515435090       -0.4425306703
 Na       -9.3869647288       -1.8529921516       -1.7946310740
