117

 C       -10.4898203755       -5.8005758916       -4.2319746172
 C       -10.5734654041       -5.0597354915       -2.9323720818
 O       -10.8139446649       -3.8899204620       -3.0111473794
 C       -10.5437751332       -5.8506634536       -1.4307646503
 C        -9.4079609834       -5.1014475699       -0.6736560179
 O        -8.9602116101       -4.1290350382       -1.2165548888
 C        -8.9869265582       -5.5389095034        0.7272507308
 C        -7.6876136309       -5.1040452363        1.3272594390
 C        -6.5956429538       -5.3822301034        0.1718043418
 O        -6.8291097575       -5.9778350501       -0.8620267893
 C        -5.1616248729       -4.7059486079        0.3791139183
 C        -5.1368549088       -3.1701169691        0.5894480359
 O        -4.6012217256       -2.6552968905        1.5719893777
 C        -5.4994269726       -2.1932546518       -0.6124762594
 C        -5.9212952380       -0.8648004461       -0.1043017810
 C        -7.4137599728       -0.6492064472       -0.0795149937
 O        -8.2564998109       -1.5200225302        0.1504813802
 C        -7.7870218727        0.9020651727       -0.5000476007
 C        -9.4240024286        1.0454581957       -0.1940443737
 O       -10.2085255856        0.3162650973       -0.7694249046
 C       -10.0815221193        2.1090195057        0.8073070966
 C       -11.2281025375        2.9187819103        0.2534974481
 C       -10.8783187697        3.7117085978       -1.0334872440
 O        -9.7581962209        3.6143158991       -1.5805323775
 C       -11.9337034073        4.6932683297       -1.4930142500
 C       -12.1309193003        5.8801228779       -0.3991389831
 O       -11.5361942589        5.8869789639        0.5951195701
 C       -12.8560551436        7.1999455870       -0.9948428793
 C       -13.1182078120        8.3895087040       -0.0572402500
 C       -12.7122280512        9.8070220407       -0.6313820510
 O       -11.6792216776        9.9875688624       -1.2303152206
 C       -13.7482150620       11.0673346514       -0.4544054961
 C       -13.3994176386       11.9285389686        0.8672332645
 O       -14.3788505932       12.4337657327        1.4000039137
 C       -12.0341472721       12.0579506545        1.3427917095
 C       -11.5890025990       13.2732857660        2.0663497193
 C       -11.1368240666       14.4616074260        1.2246410179
 O       -11.1731063465       14.4183267988        0.0015135906
 C       -10.5741168258       15.7848645207        1.8813788545
 C        -8.8990567692       15.4599298207        1.6681065001
 O        -8.4848094873       14.4686808623        2.2745144596
 C        -8.0169118079       16.5484647029        1.0736964325
 C       -10.9911349172       16.9157313995        0.9660094835
 C       -10.8370512628       15.9382177406        3.3725428127
 C       -13.5895549926       11.9938230086       -1.6402463050
 C       -15.2040445832       10.5985717198       -0.2795717467
 C       -11.6180914588        5.2869957336       -2.8061509881
 C       -13.2546238739        3.7497409798       -1.5877911897
 C        -7.0969258251        2.1440760617        0.2656459023
 C        -7.5752450226        1.1915659416       -2.0112470288
 C        -4.6571036141       -5.3168715569        1.7321692215
 C        -4.2446879989       -4.9804781094       -0.9361897719
 C       -11.8423022013       -5.3265399408       -0.7254672477
 C       -10.5405853401       -7.3740527221       -1.4367384812
 H       -11.3524002037       -5.4349263671       -4.9570175896
 H       -10.3560771717       -6.9588301367       -4.0882175585
 H        -9.4217820467       -5.7161593813       -4.5662232359
 H        -9.1962532847       -6.6731066045        0.5488657145
 H        -9.7231308040       -5.3554290628        1.5213472976
 H        -7.4135292432       -5.6482155166        2.3077806039
 H        -7.7010639241       -4.0511609335        1.6449402836
 H        -6.4340822376       -2.4800562953       -1.1944432671
 H        -4.6227888054       -2.1438732554       -1.2785033513
 H        -5.4247992717       -0.0038128946       -0.6932254355
 H        -5.4982284757       -0.8932608064        0.8873638053
 H        -9.3517169741        2.7145879695        1.3381113404
 H       -10.5516016421        1.5516069680        1.6880450571
 H       -11.5876349146        3.6594121888        1.0903238263
 H       -11.9616335199        2.2372110689        0.0702311524
 H       -13.8574108819        6.8831741761       -1.4724669714
 H       -12.4378761991        7.5926574941       -1.9389546478
 H       -12.4061268887        8.3069532470        0.7132240881
 H       -14.1499642454        8.2104288477        0.3001240263
 H       -11.2675491177       11.8794248102        0.6232438137
 H       -11.8578344019       11.2329482961        2.0970571352
 H       -10.6546941659       13.0638964383        2.6384884860
 H       -12.4429512420       13.5165648299        2.6999815599
 H        -7.0746146788       16.2615641596        1.5686926496
 H        -8.2760002987       17.5127051252        1.5215532927
 H        -7.7647772642       16.5304128436       -0.0139715684
 H       -10.5699282877       17.8419643039        1.3808701362
 H       -12.1713125228       16.9977969613        0.8139236514
 H       -10.6118650547       16.6132862046        0.0023137790
 H       -10.6561931722       16.9557181208        3.6460867736
 H       -10.2229087026       15.2929770924        3.9476784124
 H       -11.9009865950       15.6731080851        3.4871831464
 H       -14.5285973788       12.4467119569       -1.7460747719
 H       -13.1358689382       11.5980004585       -2.5860015021
 H       -12.9411605799       12.9036673125       -1.4363581037
 H       -15.5722997213       10.7666698627        0.6631300714
 H       -15.3969346452        9.6011744011       -0.6161504056
 H       -15.9923646262       11.1598934038       -0.7981824954
 H       -11.3127292765        6.3967512265       -2.8072422495
 H       -12.2754352674        5.1935846838       -3.6346328880
 H       -10.6234412277        4.7391737989       -3.0800685784
 H       -13.8977281002        4.3198634242       -2.3103441050
 H       -13.7752528889        3.4853445241       -0.6626576859
 H       -13.0381506369        2.6756115505       -1.8197825034
 H        -7.2623219453        2.8675651134       -0.4675423028
 H        -5.9927790622        1.9675587895        0.4766166963
 H        -7.3177854793        2.3044388071        1.2941981871
 H        -8.4651046914        1.2097005923       -2.7058285896
 H        -7.1094061021        0.4082609918       -2.5556592687
 H        -7.0994249483        2.1270404669       -2.1431037384
 H        -3.6058397479       -4.9805805914        1.8582408972
 H        -4.6266104494       -6.3424245852        1.8027657504
 H        -5.2681988610       -5.1383367788        2.6284431171
 H        -3.9765647179       -6.0204469147       -0.9524960214
 H        -3.2329913275       -4.5500700872       -0.9331257953
 H        -4.7725202349       -4.6506338800       -1.8632262714
 H       -12.2326321620       -4.4006471389       -1.1831667142
 H       -11.7371874215       -5.0577576649        0.3548935366
 H       -12.7107992061       -5.9625007550       -0.8792068411
 H        -9.5947171073       -7.7757583663       -1.2224815247
 H       -10.9438350655       -7.6848830693       -2.3448293379
 H       -11.1370984089       -7.7879884810       -0.6268245281
 Na       -9.8986155315       -2.0648199961       -1.5754843606
