117

 C       -10.2738712475       -5.5928879048       -4.0001064961
 C       -10.5604054712       -4.8228584631       -2.7922700170
 O       -11.0160526990       -3.7199551132       -3.0457610091
 C       -10.6333836982       -5.5507642524       -1.3393268782
 C        -9.4426186206       -4.9656570749       -0.5395651322
 O        -8.9042011199       -3.9879689976       -0.9917630205
 C        -8.9926017930       -5.6682918338        0.8771541773
 C        -7.6940589180       -5.0191235796        1.2671466379
 C        -6.5887833647       -5.3195105861        0.3116791688
 O        -6.7596418372       -5.8392946222       -0.7717918805
 C        -5.1147749587       -4.8748449957        0.6075692402
 C        -5.0514405540       -3.2938571547        0.7983897532
 O        -4.4566167408       -2.6891443133        1.6928112282
 C        -5.8188807117       -2.5305043433       -0.2485319422
 C        -6.0558479400       -0.9194515024        0.0802271023
 C        -7.5635134581       -0.5915448625       -0.2346290021
 O        -8.3117517138       -1.5354758397       -0.2962917711
 C        -8.0599178248        0.9746900074       -0.5597257433
 C        -9.5544828713        1.0936662287       -0.1596546227
 O       -10.3646476992        0.3228234192       -0.7499117784
 C       -10.0840020515        2.0366816498        0.8674419405
 C       -11.3661921729        2.7605865299        0.3167856436
 C       -10.9546351501        3.6135489133       -0.8982510581
 O        -9.7832301270        3.4128634975       -1.3703514330
 C       -12.0240933802        4.5899947030       -1.5532547349
 C       -12.2581255196        5.8437184406       -0.5425235624
 O       -12.3032731188        5.6428807206        0.6307846399
 C       -12.7878718070        7.2527735302       -1.0374803128
 C       -12.5000291754        8.3746232072       -0.0034016369
 C       -12.5484659702        9.8151645829       -0.6882822309
 O       -11.6390690817        9.9130195830       -1.5384838129
 C       -13.6373526051       10.9557134847       -0.4504867383
 C       -13.2362271628       12.0058549668        0.7337936084
 O       -14.1243352906       12.6747243170        1.2241612151
 C       -11.7987754127       12.1224614109        1.1829047454
 C       -11.4608801716       13.3686465126        1.9548411881
 C       -11.0699753667       14.6239682818        0.9537405612
 O       -11.1947859562       14.4750859090       -0.2228783123
 C       -10.4083996072       15.8315136086        1.6409508203
 C        -8.8777350404       15.5734494393        1.4624306114
 O        -8.2421176358       14.6667784442        1.9807353755
 C        -7.9571242984       16.7012856589        0.9215158607
 C       -10.7574186977       17.2188728447        1.0983444830
 C       -10.6545053444       15.9827957693        3.1018700267
 C       -13.5333734836       11.9440881069       -1.5761273029
 C       -15.0053960944       10.3793705105       -0.2663733019
 C       -11.3301636014        4.9703062882       -2.9201590531
 C       -13.4439835663        4.0982657278       -1.9220106744
 C        -7.0594613540        1.9222809512        0.0939084180
 C        -7.8392257287        0.9777725211       -2.3087901332
 C        -4.6799590323       -5.4907380013        1.9745059351
 C        -4.1001451538       -5.5141757280       -0.4183956412
 C       -11.8895513050       -5.4401719831       -0.4791721316
 C       -10.3656148137       -7.0330615724       -1.5583034679
 H        -9.9270855591       -4.9530094831       -4.8504141790
 H       -11.1162658592       -6.3139865027       -4.3075193862
 H        -9.6205199382       -6.3877448248       -3.7054279780
 H        -9.3133899390       -6.7540658429        1.0606110914
 H        -9.7062993784       -5.1693345214        1.5890653185
 H        -7.4387024858       -5.1247214708        2.3249740949
 H        -7.7240799609       -4.0278830996        1.1209394781
 H        -6.8196716512       -3.0162174820       -0.5038441412
 H        -5.2708135537       -2.6237568346       -1.2032036972
 H        -5.3402849861       -0.3394862335       -0.4923501752
 H        -5.8867937434       -0.6901394410        1.0849382413
 H        -9.3332129046        2.6552236361        1.2745741306
 H       -10.2907206198        1.4147178923        1.6950416638
 H       -11.9284380516        3.4975688759        1.1431498815
 H       -12.0964608403        2.0308242982        0.0154047233
 H       -13.8885457905        7.1099443892       -1.2814978835
 H       -12.3734777117        7.5775866332       -1.9533780822
 H       -11.4805096341        8.0900332356        0.2708861773
 H       -13.2341952138        8.2402374786        0.8706136080
 H       -11.0157464866       12.1418673257        0.4548704742
 H       -11.4498049528       11.2758287174        1.7804353876
 H       -10.5987160697       13.0131083335        2.5057752024
 H       -12.3330061394       13.5598039316        2.6223953420
 H        -8.0660294552       17.6394680221        1.3626289727
 H        -8.3020618674       16.9080167150       -0.0567433796
 H        -6.8850875790       16.4018562354        0.9157903741
 H       -10.0536822424       17.8206625331        1.5957429467
 H       -11.8402483650       17.3812322335        1.3046299999
 H       -10.7735670993       17.2920292895        0.0979299947
 H        -9.9815179676       16.8050023213        3.5135906500
 H       -10.3408879058       15.0669395101        3.5159446677
 H       -11.6857808814       16.4568255157        3.3538162764
 H       -13.4355675163       12.9410014098       -1.2701525606
 H       -14.3442661050       11.6872604162       -2.2511526838
 H       -12.6585316550       11.8426089778       -2.2250855741
 H       -15.6318176542       11.1715176676        0.1684606001
 H       -15.1058502451        9.4277475542        0.3635457516
 H       -15.5591910876        9.8967502060       -1.1682333525
 H       -10.2662179165        5.2256423643       -2.9137604805
 H       -11.6617524768        5.8921898390       -3.2699075070
 H       -11.5750519233        4.2583561436       -3.7151943034
 H       -14.1354370275        4.9198860745       -2.1494210963
 H       -13.8647629795        3.6377720868       -1.0811765845
 H       -13.3559592778        3.2904785612       -2.6096554855
 H        -7.5011045377        2.8969886991        0.2194606600
 H        -6.0672072874        1.9125210596       -0.2530423731
 H        -6.8434951482        1.3796872394        0.9765482645
 H        -8.8901457760        0.8768779732       -2.8412240901
 H        -7.2325669773        0.0780103351       -2.6498780315
 H        -7.6602820450        1.9376229995       -2.7627945097
 H        -3.6226289768       -5.2670704691        2.3494108691
 H        -4.7533361189       -6.5861181594        1.9261319443
 H        -5.3746866449       -5.1479302825        2.8123887760
 H        -4.2476673695       -6.5476446664       -0.4380409837
 H        -3.0817917991       -5.4728886936       -0.0418214814
 H        -4.2139257179       -5.0273502319       -1.4428599482
 H       -11.7313158977       -4.7214048148        0.2730273122
 H       -12.1673324461       -6.3490708099        0.0018106590
 H       -12.6841777501       -4.9083293283       -0.9618814130
 H        -9.4877731311       -7.2398197249       -2.1874871668
 H       -11.3088812661       -7.3678804137       -1.9967942764
 H        -9.8889407431       -7.5082405097       -0.6772259581
 Na      -10.5058847075       -2.0826245107       -1.2314800503
