117

 C       -10.2725889279       -5.2238354080       -4.0168003214
 C       -10.6880821862       -4.7969792473       -2.6080418934
 O       -11.0021502308       -3.5841679313       -2.5221493939
 C       -10.6283338092       -5.6324521057       -1.4243916389
 C        -9.4614298374       -4.8928464950       -0.4056938820
 O        -9.1511996072       -3.7673979815       -0.7372761620
 C        -8.9823629800       -5.5958904729        0.9438290953
 C        -7.6589038704       -5.0482859379        1.3984197484
 C        -6.3756672577       -5.3680921579        0.4397786342
 O        -6.6762692839       -5.8776370269       -0.6109280091
 C        -5.0241315108       -4.9305038639        0.8464923177
 C        -5.0334331648       -3.3512878354        0.9162346015
 O        -4.4780305079       -2.7483154266        1.7830031415
 C        -5.7929818801       -2.6241624649       -0.2371585784
 C        -6.2571620431       -1.2024366748       -0.0002238109
 C        -7.7026578031       -0.7217679629       -0.2894828357
 O        -8.6378145854       -1.4927892597       -0.3214848491
 C        -8.1507951461        0.7575878430       -0.7280203629
 C        -9.6696400717        0.8418980038       -0.2208321371
 O       -10.5246355242        0.2863312956       -0.8377686384
 C       -10.1556732091        2.0256212254        0.7972424036
 C       -11.4288098459        2.8292429651        0.3628036551
 C       -11.0898336337        3.6062651782       -0.9415954173
 O       -10.0355477028        3.4256396443       -1.4167825528
 C       -11.9743562901        4.7527575459       -1.5528723817
 C       -12.2306962960        5.8522319116       -0.4813868878
 O       -12.6163118099        5.5175886027        0.6844047382
 C       -12.2631677409        7.2603405538       -1.0646661938
 C       -12.5853685978        8.4099322358       -0.0666460356
 C       -12.3977783222        9.7353281504       -0.8463718414
 O       -11.5225599077        9.9056786073       -1.6570903648
 C       -13.3648202739       10.8582122201       -0.4701381751
 C       -12.9767784908       11.9274952662        0.5400645727
 O       -13.8562176251       12.3455081250        1.2452759338
 C       -11.5443445640       12.2194930273        0.7301349291
 C       -11.2697956991       13.4383632950        1.7390875650
 C       -10.9293760339       14.5976622883        0.9640505061
 O       -11.2624236786       14.7714386310       -0.2110861888
 C       -10.2719052704       15.8636096981        1.6537779158
 C        -8.7626298936       15.7378272702        1.4827689707
 O        -8.2813686830       14.6911895074        1.8077316391
 C        -7.8523884047       16.6580157286        0.6501083021
 C       -10.9454410670       17.0355886235        0.7912903927
 C       -10.5478955950       15.9427847743        3.2180852776
 C       -13.5983089432       11.7496645026       -1.8070688548
 C       -14.7196355553       10.2773402818       -0.0464103992
 C       -11.3602496307        5.3067089602       -2.8548150006
 C       -13.3328552311        4.0517410059       -1.8192352260
 C        -7.1314135349        1.8008975723       -0.0053453357
 C        -8.1718901219        0.9635566652       -2.1387936390
 C        -4.6720538292       -5.4800941960        2.2435621633
 C        -3.8891326451       -5.3013866110       -0.2248195718
 C       -12.0210277748       -5.3072843992       -0.7027153019
 C       -10.5456566580       -7.1721250700       -1.6235553204
 H       -10.3477430833       -4.2165620520       -4.5333826795
 H       -11.1469486345       -5.7318372450       -4.3423476258
 H        -9.4825443863       -5.9644019696       -4.2721199089
 H        -9.0973666589       -6.6560948714        0.8930750346
 H        -9.8120025875       -5.3629913150        1.6512714870
 H        -7.4726211007       -5.1754827626        2.4825323491
 H        -7.5910597275       -3.8625860981        1.1634842526
 H        -6.6089413342       -3.2977193682       -0.5355506260
 H        -5.1352977634       -2.6390848652       -1.1540645385
 H        -5.5304762724       -0.5786587877       -0.5232565582
 H        -6.0851065608       -0.8977664005        1.1158701120
 H        -9.2544188599        2.7264446836        0.7461063123
 H       -10.1603809637        1.7199461671        1.8827772241
 H       -11.7328094704        3.4064159196        1.0947312325
 H       -12.2871344399        2.1882817099        0.0866878171
 H       -13.0219894074        7.3289598814       -1.8572870688
 H       -11.2504252312        7.5128983203       -1.5973498299
 H       -11.7532252158        8.3927402074        0.6760968217
 H       -13.4598236459        8.1623440597        0.4476291585
 H       -10.8680198332       12.3689499659       -0.1223425599
 H       -11.0881083174       11.2958854223        1.1172888359
 H       -10.5032264934       13.0480235461        2.4577550821
 H       -12.2485846525       13.5377269977        2.1927224149
 H        -8.2710497787       17.6820505237        0.7392774741
 H        -7.8353612411       16.5563490070       -0.4378965239
 H        -6.8805614554       16.6022296505        1.0933954624
 H       -10.7082875336       18.0078059221        1.2888022005
 H       -11.9260835608       16.8009603630        0.5581484586
 H       -10.5329242967       17.0309832935       -0.2920077056
 H       -10.1354836768       16.7720935762        3.7282979995
 H       -10.0802723856       15.0060186439        3.5688369359
 H       -11.5438000094       16.0682276686        3.3955137748
 H       -13.5187242326       12.8954994626       -1.6562460416
 H       -14.4117684268       11.3331367911       -2.3923491110
 H       -12.7148059968       11.6647299724       -2.4309796683
 H       -15.6357899750       10.7447710850       -0.4107946666
 H       -14.9061178996       10.0667428265        0.9921733927
 H       -14.7296089337        9.2936809445       -0.3905668565
 H       -10.2711306080        5.3159416919       -2.7751301954
 H       -11.4484485920        6.3989945062       -3.2753592963
 H       -11.6659770584        4.6849875995       -3.7212540071
 H       -14.0412137389        4.8223185847       -2.2044071840
 H       -13.8728739020        3.7407492792       -0.8316723723
 H       -13.2457495468        3.1891755392       -2.5567943157
 H        -7.3767092500        2.8268067883       -0.4917684717
 H        -6.1866342505        1.3993856673       -0.2875591770
 H        -7.0535200976        1.8821336328        1.1435643589
 H        -8.5193424626        0.1756022956       -2.7302952954
 H        -7.1334925587        1.1442572315       -2.4262471682
 H        -8.9524082188        1.6693730444       -2.4679946313
 H        -3.6377253419       -5.3958380525        2.4174145037
 H        -4.9194290151       -6.5646040003        2.4378503600
 H        -5.0538623762       -4.8210450406        2.9969385453
 H        -3.8613028157       -6.4315257434       -0.4513173944
 H        -2.8954515865       -5.1446703758        0.2381620272
 H        -4.0136622049       -4.7042532738       -1.0899164161
 H       -12.0305323822       -4.6932863756        0.2091164657
 H       -12.4656940774       -6.2812126992       -0.5921717383
 H       -12.6866256404       -4.7424608835       -1.3618248005
 H        -9.5538729496       -7.5011423804       -1.6052160300
 H       -11.0299704620       -7.4196541806       -2.5320848808
 H       -10.9652376061       -7.6341247248       -0.7836355122
 Na      -10.6076877495       -1.9603393063       -1.2180509615
