117

 C       -10.3364769234       -5.1231815395       -3.9064306167
 C       -10.8392985771       -4.6658971216       -2.6352705043
 O       -11.1074422530       -3.4732255231       -2.5395148421
 C       -10.8427976654       -5.6117371082       -1.3166836113
 C        -9.5948042946       -5.0965064406       -0.3141349380
 O        -9.0353391228       -4.0399275361       -0.5423167588
 C        -9.0071438237       -6.0840544444        0.8557686592
 C        -7.7773406320       -5.3634085487        1.4467032215
 C        -6.5139287726       -5.4172629162        0.4927469775
 O        -6.5171371051       -6.0983484338       -0.5137676471
 C        -5.1515086987       -4.7562683524        1.0081797641
 C        -5.2304719734       -3.0880634098        0.9397199389
 O        -4.7542316942       -2.4666904799        1.8355323172
 C        -6.0287956059       -2.4399565923       -0.2153775187
 C        -6.3003766839       -0.9547921754        0.0554307726
 C        -7.7727122157       -0.7697618345       -0.1866649409
 O        -8.5828802443       -1.6491407286        0.0575920331
 C        -8.1736311819        0.6911375409       -0.7067300028
 C        -9.7813630574        1.0131910451       -0.1633915953
 O       -10.7425579553        0.4246533503       -0.7341592096
 C       -10.1405394479        2.1117647566        0.8597663940
 C       -11.2774659664        2.8792188817        0.2185136483
 C       -10.9894969602        3.6243537659       -1.0488892298
 O        -9.9313649039        3.3774552449       -1.6515012503
 C       -11.9902717415        4.7137981554       -1.6631711785
 C       -12.1939643422        5.9376534452       -0.4151336137
 O       -12.7889943094        5.6914652670        0.5498978074
 C       -11.5624062642        7.2530677425       -0.6793530165
 C       -12.2878237438        8.4138452864        0.0233294569
 C       -12.4160551782        9.6710504365       -0.8826314412
 O       -11.4203654685        9.9142185420       -1.5448138699
 C       -13.4043520067       10.8181712020       -0.6611000512
 C       -12.7576489649       11.7082127008        0.4974746254
 O       -13.3594265690       12.0010079571        1.5103532427
 C       -11.2354698970       12.1615587108        0.4333956274
 C       -10.7816131347       13.3147535918        1.4020344367
 C       -10.8888383413       14.6694068822        0.7485627934
 O       -11.3167523445       14.7324870303       -0.4134353131
 C       -10.2683212224       16.0305085376        1.4919007849
 C        -8.6404198101       15.7561288992        1.2698510814
 O        -8.2337516041       14.7035905675        1.8274155452
 C        -7.8799381873       16.7039111410        0.4646591644
 C       -10.8205771611       17.4524999198        0.9682753784
 C       -10.5718157103       16.0369921493        3.0661539115
 C       -13.7142411084       11.3451947011       -2.1001941963
 C       -14.8907650117       10.3794723815       -0.2485663302
 C       -11.4656338258        5.1332540496       -2.9637247244
 C       -13.3833703312        3.9199685162       -1.7632431531
 C        -7.4139969417        1.7697805205       -0.0594436073
 C        -8.1113155164        0.7128214413       -2.2675687922
 C        -4.6991821303       -5.2951909261        2.3841655869
 C        -4.1107004797       -5.2062466244        0.0067035596
 C       -12.2322954199       -5.3817853961       -0.5770520742
 C       -10.4131915761       -7.0506136171       -1.5999921069
 H       -10.2467976253       -4.3241767596       -4.5270887238
 H       -10.6699007083       -5.9573558534       -4.5038970781
 H        -9.3292197877       -5.3283790172       -3.4839856136
 H        -8.8079942261       -6.9900733666        0.2878471841
 H        -9.7806755369       -6.4257479196        1.5047302820
 H        -7.2593624906       -5.8671641447        2.2352507017
 H        -7.9807011243       -4.4008694418        1.7173430553
 H        -6.9276771822       -3.0307621914       -0.3681223841
 H        -5.4784385360       -2.6777956938       -1.0718004926
 H        -5.7819356873       -0.3402911382       -0.7480900112
 H        -5.9379933219       -0.6093255159        0.9869926286
 H        -9.2782119322        2.5591059279        1.2698908594
 H       -10.5822904192        1.5244693140        1.6865257081
 H       -11.4953731258        3.7620417214        1.0014999801
 H       -12.2188480466        2.2863556010        0.1529002303
 H       -11.6317015854        7.5850126688       -1.6942140419
 H       -10.5643305239        7.2102792666       -0.4101304873
 H       -11.7221466283        8.7717076475        0.8724331843
 H       -13.2611284143        8.1120716471        0.5364086530
 H       -10.8470430183       12.3962834967       -0.5541780108
 H       -10.6109829757       11.2666563237        0.6429809917
 H        -9.7927641878       12.9732641804        1.5722623428
 H       -11.4302464090       13.1076743925        2.2710039726
 H        -8.1078792978       17.7657930533        0.3215542903
 H        -7.9909163110       16.2202133848       -0.5601864732
 H        -6.8008393347       16.5712193260        0.7006212999
 H       -10.4117083797       18.2989636144        1.4983697245
 H       -11.9599957186       17.3343902859        0.9376898521
 H       -10.5473188821       17.5082343513       -0.0632297591
 H       -10.5395393500       17.0920443014        3.3364065698
 H        -9.8043356078       15.4848018783        3.6774185840
 H       -11.6597740636       15.8216622497        3.3015175365
 H       -14.5023240833       11.9857065904       -2.0980847890
 H       -13.9038303094       10.4428464158       -2.7219532627
 H       -12.9331821047       11.9857268936       -2.5259919246
 H       -15.4425321282       11.2229086380        0.1979954075
 H       -14.9273575809        9.6621567127        0.5605813530
 H       -15.5113547852        9.9606110825       -1.0628581567
 H       -10.9910672686        6.0747570900       -2.9164030839
 H       -12.2257502308        5.3175829478       -3.5941659607
 H       -10.8358664492        4.4693242346       -3.4694198815
 H       -14.0592438898        4.3456617345       -2.4869418503
 H       -13.8636856551        3.7972691068       -0.8499536769
 H       -13.1257168725        2.9959409897       -2.2418142411
 H        -7.9016887305        2.6581093161       -0.2642130818
 H        -6.2107933484        1.7719877492       -0.1863478485
 H        -7.5564608682        1.6203121821        1.0658624334
 H        -7.8032582826       -0.1890056222       -2.7651884835
 H        -7.5931267989        1.5919571123       -2.5933968645
 H        -9.0968121325        0.6925410995       -2.7346978413
 H        -3.7055263230       -4.9166344450        2.6844714306
 H        -4.5966364698       -6.3190987244        2.2632821777
 H        -5.3122844880       -4.9496849645        3.2178353620
 H        -3.8726314462       -6.2531859827        0.0905839898
 H        -3.2391061160       -4.5369975257        0.2125427210
 H        -4.4374268500       -5.0273052644       -1.0377331946
 H       -12.0073456645       -4.5889132167        0.1803181027
 H       -12.5740243505       -6.3702243984       -0.1242186587
 H       -13.1117838205       -4.9893548177       -1.1638053953
 H        -9.2525737420       -7.1253939510       -1.7781774913
 H       -10.8799124033       -7.4615455150       -2.5510941279
 H       -10.7994496696       -7.6773763787       -0.7037740177
 Na      -10.7410026385       -1.6660079882       -1.1755514315
