117

 C       -10.4326275232       -4.9876175822       -3.9548323452
 C       -10.8305242494       -4.7128333588       -2.4769711703
 O       -11.4328556456       -3.6645949701       -2.3359321762
 C       -10.8000830886       -5.6981964589       -1.2024644479
 C        -9.6135935365       -5.3779583604       -0.3196571200
 O        -9.2571394113       -4.1673619265       -0.3295202706
 C        -8.9683072685       -6.4009269207        0.5352218473
 C        -7.8956743409       -5.6444890264        1.4177706895
 C        -6.5393233667       -5.4295956400        0.5105322493
 O        -6.3974436742       -6.1101543498       -0.5221765550
 C        -5.4400618034       -4.5808055300        1.2065986720
 C        -5.8860315352       -3.0689652620        1.1583420801
 O        -5.6900312701       -2.4084578128        2.1643897386
 C        -6.5131804948       -2.4977240800       -0.1527723727
 C        -6.6121623452       -0.9820970256       -0.0788405812
 C        -7.9840961874       -0.4051534151        0.0981338603
 O        -8.7694432439       -0.9962161461        0.8282324978
 C        -8.4138993621        0.8265923304       -0.7401543833
 C        -9.9270685208        1.1046507565       -0.2323489889
 O       -10.8801387747        0.3700704402       -0.5874797215
 C       -10.0758917149        2.1753386098        0.8415242886
 C       -11.1241682087        3.1393376918        0.4380708515
 C       -10.9478602917        3.7603390836       -1.0001817497
 O        -9.9951159690        3.3767414573       -1.6797040006
 C       -12.0077794840        4.7365359575       -1.5374821890
 C       -12.2459604443        5.7945206051       -0.4759814612
 O       -13.0084407183        5.6164499679        0.3780706926
 C       -11.3423211688        7.0545802150       -0.5518033898
 C       -12.1790602521        8.2518028118       -0.0844171061
 C       -11.9690604735        9.5249065957       -0.9508258029
 O       -11.1983073813        9.5361616989       -1.8468855779
 C       -13.0797240644       10.6540081373       -0.6594853719
 C       -12.2325122759       11.5327487625        0.2773621018
 O       -12.4511869694       11.6693559711        1.4627735174
 C       -11.0311980820       12.4038142919       -0.3689452064
 C       -10.5378445373       13.4624685323        0.7745955029
 C       -10.7876878869       14.8363856919        0.3799658761
 O       -11.4476414203       15.0597437562       -0.6593923087
 C       -10.2040372512       15.9473968236        1.3067386324
 C        -8.6206441493       15.8316482330        1.0296001382
 O        -8.0715992994       15.1723764681        1.9053222176
 C        -7.8234068024       16.5395691038        0.0124988297
 C       -10.7263681300       17.3790110944        0.9576396821
 C       -10.6082673250       15.5403231172        2.7032559575
 C       -13.5118511611       11.4935968360       -1.9420085717
 C       -14.3702712750       10.0756117176       -0.0280954575
 C       -11.3991648281        5.2514007574       -2.8355942727
 C       -13.3545555073        4.0803369560       -1.9135268119
 C        -7.2575466199        1.9911387393       -0.4058656086
 C        -8.4250417604        0.6288929964       -2.2695832618
 C        -5.1338634201       -5.0254716372        2.7326720642
 C        -4.0807232953       -4.7500466291        0.3659525987
 C       -12.0322208785       -5.3159805166       -0.3343476875
 C       -10.6962085434       -7.1435462988       -1.5839843431
 H        -9.9673990120       -4.0544204727       -4.2768685246
 H       -11.1506415191       -5.1366423931       -4.6076025149
 H        -9.6685731848       -5.6370415941       -3.9865447147
 H        -8.4768020975       -7.0696241116       -0.1257709307
 H        -9.6586522521       -7.0101662280        1.0247998521
 H        -7.6398588026       -6.2793210242        2.1580170393
 H        -8.0910756006       -4.6951249057        1.8730949765
 H        -7.4374967020       -3.0404670572       -0.1850743891
 H        -5.9615346152       -2.8485320444       -0.9595301118
 H        -6.0401231293       -0.4760140056       -0.9703154672
 H        -6.0285682965       -0.5720351843        0.8292378461
 H        -9.0556369629        2.4742399576        1.0693422644
 H       -10.5124973188        1.6176200308        1.7550013042
 H       -11.1990944960        3.9060891212        1.2210175803
 H       -12.1994595678        2.6285090313        0.5527124381
 H       -10.9969666997        7.3742413546       -1.4992248122
 H       -10.5597741981        6.9295894993        0.1258452395
 H       -12.1113312053        8.4896494309        0.9567763304
 H       -13.2460371724        7.9789371731       -0.1551122870
 H       -11.2622187306       12.9937967210       -1.2542214127
 H       -10.2209111244       11.7447022336       -0.7542099619
 H        -9.5366977594       13.2089817501        1.0025360555
 H       -11.1974040457       13.1728633457        1.5999290218
 H        -7.0483049115       17.2730847682        0.2543622057
 H        -8.6151121116       17.0144209483       -0.6502354170
 H        -7.4350077132       15.8961534939       -0.7563108698
 H       -10.7112563224       18.1519724682        1.6589385455
 H       -11.8076235450       17.3594533051        0.8579399227
 H       -10.1980742527       17.5847312669       -0.0258592808
 H       -10.4504744124       16.3476857285        3.2955104065
 H        -9.9737788139       14.6945030268        3.1003594729
 H       -11.6158275813       15.2290491471        2.6712263458
 H       -13.7035231865       12.4720256958       -1.5885318352
 H       -14.5548406591       11.2836522319       -2.2263727292
 H       -12.8168698900       11.5226603319       -2.7920983911
 H       -15.2619082579       10.6572265491       -0.1749198800
 H       -14.1819918506        9.9575139611        0.9953175178
 H       -14.5673599479        9.2312796088       -0.5345371332
 H       -11.6193788853        6.2872366327       -2.9575199446
 H       -11.7835441297        4.7539846363       -3.7308414791
 H       -10.3594423648        5.2849083341       -2.8729784591
 H       -14.1272000693        4.7204024032       -2.3036386119
 H       -13.5968160950        3.6353175590       -0.9235540081
 H       -13.2507607913        3.3238627980       -2.7504499945
 H        -7.5577745598        2.8832784820       -1.0038263441
 H        -6.3533036465        1.8046707785       -1.0748942583
 H        -7.2911604042        2.3317787944        0.6527559873
 H        -7.9174995183        1.3856005302       -2.6431955534
 H        -9.4223396223        0.4520343140       -2.6332603014
 H        -7.8918121921       -0.1699301629       -2.6861362436
 H        -4.3146041580       -4.4794387368        3.1790175183
 H        -4.8635979728       -6.0521765062        2.6606037031
 H        -6.0268935441       -4.9734466921        3.3611954060
 H        -3.7868521852       -5.8083430124        0.2585842342
 H        -3.4361699040       -3.9631774214        0.7593569277
 H        -4.2650926062       -4.4355727740       -0.6214878712
 H       -11.9703129110       -4.2141311683       -0.3977106874
 H       -11.8434032031       -5.4286118887        0.7846588147
 H       -12.9742300144       -5.7886985684       -0.5722805409
 H        -9.6643186903       -7.4007540373       -1.8084449202
 H       -11.1428273457       -7.3402031396       -2.5492340647
 H       -11.1735698703       -7.8537343171       -0.9458894999
 Na      -10.2952072426       -2.0045291939       -0.7893937639
