117

 C        -5.2976607309       -1.3138571758        9.4155140172
 C        -6.7704203850       -1.1527518516        8.9950671195
 O        -7.5806994772       -0.5728958085        9.6686337160
 C        -7.1814699795       -1.8130956739        7.6592160245
 C        -6.5023994240       -1.0125329299        6.4369202309
 O        -5.4871244726       -1.4012303436        5.7945511740
 C        -6.9307228722        0.4067263878        6.3166343040
 C        -6.1482194501        1.1537848723        5.1633123402
 C        -6.7485887274        2.5635609679        4.9077243091
 O        -7.9821614524        2.7391469910        4.9798468689
 C        -5.8517678742        3.7451149242        4.5218874857
 C        -5.8578242075        3.5761365463        2.9196560159
 O        -5.1289598200        2.7204115798        2.4954539093
 C        -6.6612934438        4.4313853530        2.0007239233
 C        -6.3460175393        4.1482811468        0.4945373793
 C        -7.6324121998        3.8981522295       -0.2856980696
 O        -7.9933662015        4.8369623672       -0.9352821954
 C        -8.4201292666        2.5415753157       -0.1508154476
 C        -9.6919181741        2.9887584119        0.5959895844
 O        -9.5536207798        3.8604380068        1.4008067683
 C       -11.0203658001        2.2089122013        0.4970916611
 C       -12.2661653204        2.9481332447        0.9825566059
 C       -12.3248391266        4.2081206096        0.0310517391
 O       -11.3531067636        4.9217955956       -0.2440347943
 C       -13.7310524103        4.4881197362       -0.6939431148
 C       -13.6791709895        4.0546828015       -2.2243494902
 O       -12.5897594936        3.9745282746       -2.7221363663
 C       -14.9911276455        4.2496355137       -3.0384215065
 C       -14.6487583446        4.9717211140       -4.4749395166
 C       -15.1541584475        6.4942352820       -4.5661614463
 O       -15.9240864527        6.8442322877       -3.7082335424
 C       -14.9124686336        7.3362580424       -5.8742818390
 C       -13.4741988753        6.9058008328       -6.3600451382
 O       -13.3084626228        6.0321156744       -7.1738488604
 C       -12.3283655071        7.5379279444       -5.6330428655
 C       -10.9643007168        6.9573946542       -6.0355946873
 C       -10.0428810653        6.3528635394       -4.9114376266
 O       -10.5710407537        6.2283324729       -3.8527017699
 C        -8.7376401476        5.5761282131       -5.2837726529
 C        -9.0198862757        3.9852776755       -5.1174131860
 O        -9.5055164998        3.5395024479       -4.0945651614
 C        -8.5279813761        2.9997042247       -6.2294060152
 C        -8.2843485421        5.9063179928       -6.8203802766
 C        -7.5086375662        5.8343317769       -4.2688593574
 C       -15.9127433757        6.9868807021       -7.0260411888
 C       -14.9073868372        8.8298660094       -5.6059537642
 C       -15.0043272585        4.1327709613        0.0806869219
 C       -13.7072937684        6.0507237609       -0.7368397047
 C        -8.6030978663        1.9717217630       -1.5432333834
 C        -7.6493568208        1.5319281479        0.7948359102
 C        -6.6127986597        5.0489378694        4.9647466464
 C        -4.3669140572        3.6860623859        5.0225013024
 C        -6.5859357358       -3.2779163814        7.4947162372
 C        -8.8054151250       -1.7465100477        7.7254382435
 H        -5.0134891627       -0.6363391797       10.2281736141
 H        -4.6277872227       -1.3976514238        8.5957024366
 H        -5.2104812487       -2.3158969727        9.8955446091
 H        -6.7991621082        1.0565616410        7.2473278630
 H        -8.0258950185        0.5190594274        6.0148791393
 H        -6.5103367123        0.6053368559        4.2737218687
 H        -5.1043585656        1.0972053138        5.3966981813
 H        -6.6019736550        5.4896141580        2.2907919452
 H        -7.6947735299        4.1259735634        2.2839294437
 H        -5.6657224297        3.3290390917        0.3047351414
 H        -5.9692529494        5.0515755529        0.1329416994
 H       -10.8361625472        1.1656754902        0.8589845687
 H       -11.2580917785        1.9795670167       -0.5287810776
 H       -12.1721918823        3.2458815718        2.0705004435
 H       -13.1656408142        2.3882992907        0.9694811778
 H       -15.6519641712        4.9194202320       -2.4912619110
 H       -15.4534751336        3.2056158579       -3.2534494414
 H       -15.3826205448        4.4863704473       -4.9964872129
 H       -13.7508355722        4.6010706044       -4.9319016587
 H       -12.5067665272        7.4687620122       -4.5272748596
 H       -12.4810635006        8.6278068295       -5.9046911119
 H       -10.3804604896        7.5629471689       -6.7023585027
 H       -11.1689103117        5.9597869787       -6.6071827822
 H        -8.0906901401        2.2420896883       -5.5924688334
 H        -7.7874036235        3.4756443632       -6.8217794915
 H        -9.4164986756        2.7008751154       -6.8876260777
 H        -8.2122146616        6.9603588207       -6.8912137893
 H        -9.0616216579        5.5835441932       -7.4614203072
 H        -7.3668295468        5.4956318741       -7.2231183678
 H        -7.8954397309        5.6294941999       -3.2925985865
 H        -6.8962601782        6.6733407222       -4.4788819022
 H        -6.7583524780        4.9145569907       -4.3818291532
 H       -15.7358478381        6.0404795639       -7.4122061608
 H       -15.9497293712        7.7316618450       -7.7655718452
 H       -16.9214224560        6.9276446520       -6.5761127744
 H       -14.4577498026        9.4233819450       -6.3292248377
 H       -14.4117926438        9.0137450013       -4.5748024729
 H       -15.9089206990        9.1972886956       -5.2862266799
 H       -14.8037727100        4.4787795858        1.0667697729
 H       -15.3850189272        3.1768825141        0.2102598647
 H       -15.8262693408        4.7382696895       -0.3466499565
 H       -13.6539889129        6.4807468677        0.2586133815
 H       -14.6298911982        6.4365298874       -1.1644764554
 H       -12.9016621724        6.4688086560       -1.3231834804
 H        -9.3674055305        1.1465726147       -1.4545137714
 H        -7.7079839335        1.4899199619       -1.7403150605
 H        -8.8410079747        2.7419714836       -2.2469715377
 H        -7.2608225666        2.1158676979        1.6205883565
 H        -6.7982884515        1.0165125954        0.2749596198
 H        -8.3463867846        0.8431689936        1.1639958202
 H        -6.9830921600        5.0013708485        5.9666830692
 H        -7.4557627745        5.0746126049        4.2125907236
 H        -6.0382127503        5.9352664005        4.9932338971
 H        -4.1967235156        3.3024378239        5.9868159566
 H        -3.9208781981        4.7018763349        5.0691116740
 H        -3.7791928221        3.1083447358        4.3747288645
 H        -5.5165583204       -3.1725475198        7.2651857684
 H        -7.1159160014       -3.6700546034        6.6200935460
 H        -6.6902783450       -3.9834114531        8.3378902844
 H        -9.1059893337       -1.9080729559        8.7135226089
 H        -9.2972970953       -2.3685933573        6.9411035405
 H        -9.1004141289       -0.7427896781        7.5435386126
 Na      -10.1653649920        4.7259625372       -2.0843904683
