117

 C       -11.3200895114       -4.8765478084       -3.7044219065
 C       -10.7884342844       -4.4704850276       -2.1665284221
 O       -10.2565744057       -3.3945223975       -1.9889751218
 C       -11.1785332353       -5.3414820744       -1.0616466285
 C        -9.8918316648       -5.2445137204        0.0697134280
 O        -9.8911384945       -4.3162534775        0.8439203947
 C        -8.8592185103       -6.3410659314        0.0398578282
 C        -7.6399005207       -6.3413809996        1.0670373949
 C        -6.6201780080       -5.2354394601        0.5966348700
 O        -6.2515318122       -5.1851859957       -0.5452673028
 C        -5.8229502461       -4.4694772301        1.6609255739
 C        -6.1178987132       -2.8925228518        1.5676648187
 O        -6.9198965310       -2.4222348341        2.3422630317
 C        -5.7220284088       -2.0049583696        0.3696795790
 C        -6.4205500951       -0.7257990843        0.5349821902
 C        -7.9843682907       -0.6900817826        0.4249045984
 O        -8.5591477271       -1.6767042201        0.7825399426
 C        -8.5563661776        0.5313212571       -0.5912980511
 C       -10.0037174398        0.9306892371       -0.0801096642
 O       -10.9010569728        0.0693090838       -0.1088346612
 C       -10.3114497373        2.2350396521        0.8189405852
 C       -11.4266745869        3.2676155763        0.3044434100
 C       -11.2094537706        3.6693419979       -1.1938176478
 O       -10.5341432982        2.9156997816       -1.8361037907
 C       -12.1576180111        4.8165428351       -1.7941914483
 C       -12.4312396029        5.8816139909       -0.6919726403
 O       -13.4897578111        5.9696953085       -0.0729801260
 C       -11.1341021412        6.6345915793       -0.1801874198
 C       -11.4544352277        8.1236782013        0.1243047317
 C       -12.0609384234        8.8452917962       -1.1203063713
 O       -12.2911915958        8.2798457978       -2.1189515578
 C       -12.5664739438       10.4573685042       -0.8760119990
 C       -11.3585996733       11.3570222698       -0.5297814308
 O       -10.6390204467       10.8819274873        0.3324198639
 C       -10.9537754316       12.7202798010       -1.2017501058
 C        -9.9899524461       13.6666752786       -0.2587045845
 C       -10.4316660572       15.1551452887       -0.0707292015
 O       -11.2648668776       15.5588309356       -0.8038646806
 C        -9.8083009585       16.2112198421        1.0878790368
 C        -8.3277278866       16.3550090094        0.8211453221
 O        -7.5190232223       16.2412226142        1.6879940791
 C        -7.9047463863       16.6553655966       -0.5585858857
 C       -10.5383924726       17.5601327488        0.9820312008
 C       -10.1207164581       15.5757931251        2.4051532829
 C       -13.0757644819       10.9525759278       -2.3156705311
 C       -13.6847614901       10.3922130048        0.1730316661
 C       -11.2413983610        5.4684120655       -2.9239183914
 C       -13.4089688217        4.0584544868       -2.3594851243
 C        -7.6314929546        1.8557132116       -0.6514936692
 C        -8.6735862684        0.0067571365       -2.0808991481
 C        -6.0210505262       -4.8279274659        3.1093381871
 C        -4.2548106001       -4.6443994418        1.3358164797
 C       -12.4499832300       -4.9315927045       -0.2159024641
 C       -11.4738731605       -6.8460956045       -1.3550118676
 H       -11.1487945401       -4.0516031207       -4.2991091066
 H       -12.2858304746       -5.3203721994       -3.8331399085
 H       -10.6031336608       -5.5786055972       -4.0422577226
 H        -8.3373153243       -6.3503963956       -0.9677862661
 H        -9.3857542283       -7.3488337215        0.1331616659
 H        -7.1378975461       -7.2550906127        0.8747197711
 H        -7.8639047400       -6.2850254816        2.1134003738
 H        -5.9922564463       -2.4985026534       -0.6145431675
 H        -4.6427822400       -1.7873119081        0.4329083069
 H        -5.9971920579        0.0965963744       -0.1469239587
 H        -6.1506847608       -0.3875898545        1.5456903455
 H        -9.2073380875        2.5880672414        1.0068367899
 H       -10.6577314573        1.7322334807        1.7658962092
 H       -11.4269045293        4.0467873124        1.1101091611
 H       -12.5073868739        2.8047250735        0.2763530982
 H       -10.1758594334        6.5353500010       -0.7623618809
 H       -11.1406579886        6.0339465787        0.7887987185
 H       -10.4310124330        8.4653743716        0.1856625599
 H       -11.9724221709        8.3167353428        1.0907784569
 H       -11.8137421649       13.3689388459       -1.3728557589
 H       -10.5066527455       12.6107945391       -2.2187609583
 H        -8.9517592128       13.7406104866       -0.6662796171
 H        -9.7525832358       13.0989159317        0.6469779069
 H        -7.9893722990       16.0120046160       -1.4329088741
 H        -6.8462907985       16.8723304621       -0.4611102878
 H        -8.1590251817       17.6172486620       -0.8849384765
 H        -9.8294270570       18.4686043224        0.9113328217
 H       -11.4680533220       17.6334039868        1.5083390761
 H       -11.0535218632       17.6103859584       -0.0447768511
 H        -9.6601257323       16.2817841137        3.1916091994
 H        -9.7093771779       14.5853631538        2.4184122605
 H       -11.1799128041       15.5320202741        2.6560310221
 H       -12.1220044750       11.3273786617       -2.9080541043
 H       -13.6995963938       11.7710832217       -2.0255892128
 H       -13.7033085657       10.4360719654       -3.0084674613
 H       -14.1043621420       11.3972217412        0.2228059030
 H       -13.2424489522        9.9295103345        1.0890032488
 H       -14.4952567011        9.6736403420       -0.2746122413
 H       -11.0870149623        6.5848853473       -2.7661465405
 H       -11.7095018487        5.4431723767       -3.9612973752
 H       -10.2734658574        4.8180676013       -2.9547219437
 H       -14.0689072488        4.7600377527       -2.8112658404
 H       -13.9347798216        3.6355906072       -1.5242431787
 H       -13.0653815222        3.2779318062       -2.9908361093
 H        -8.2462107713        2.7239083362       -1.0593175745
 H        -6.7709626253        1.5124715892       -1.2635338485
 H        -6.8861260378        2.3392871709        0.0789427367
 H        -7.8385187034        0.5753838438       -2.6837038445
 H        -9.6435067051        0.0622895714       -2.5039879964
 H        -8.5246549569       -1.1150648542       -2.1570096875
 H        -5.2153619161       -4.3563061960        3.6871675508
 H        -6.0515150503       -6.0015504863        3.1972400937
 H        -6.9780763795       -4.3327915900        3.4360234097
 H        -3.7219708329       -5.4918488597        1.8484168378
 H        -3.8357438685       -3.7786146803        1.8393671199
 H        -4.2712757466       -4.5272750378        0.2946688108
 H       -12.4537332220       -3.8684374790       -0.0796546023
 H       -12.2422825141       -5.3838461317        0.7143231124
 H       -13.3983946245       -5.0944517199       -0.6644723775
 H       -10.6305097293       -7.3057013104       -1.8438465501
 H       -12.3437131570       -7.0741486897       -2.0037455871
 H       -11.5095542556       -7.4792058308       -0.4653081689
 Na      -10.7597584079       -2.5212986498        0.0438352759
