117

 C       -11.2318715437       -4.7079093659       -3.5694057661
 C       -10.7765115679       -4.4440424895       -2.1141073090
 O       -10.1861455363       -3.3970911192       -2.0080955994
 C       -11.2030764532       -5.5366380863       -0.7398580908
 C        -9.9787718333       -5.3873657816        0.2319241218
 O        -9.8512286650       -4.3230743112        0.8713543491
 C        -8.8556026725       -6.3085862859       -0.0267984372
 C        -7.7215245187       -6.1792019290        1.0370526477
 C        -6.5998905073       -5.2570688075        0.5744212297
 O        -6.3257979902       -5.0513952571       -0.5816993472
 C        -5.8192865968       -4.4381391708        1.7745954474
 C        -6.2177728714       -2.9089800772        1.6913198643
 O        -6.9082380882       -2.5172904276        2.5764321365
 C        -5.5591356242       -1.9457642348        0.6567147347
 C        -6.2821391361       -0.5652723723        0.5721534271
 C        -7.8440636568       -0.6859150354        0.2041303158
 O        -8.5611225920       -1.5890975854        0.5831016772
 C        -8.6015548206        0.5674580710       -0.5695053094
 C       -10.0484204010        0.8430314679        0.0529640893
 O       -10.8570333717       -0.0584738474       -0.0149244751
 C       -10.4592592874        2.1537737364        0.8207125877
 C       -11.4931172506        3.1580052592        0.2377734793
 C       -11.2905468006        3.5590145281       -1.2381245424
 O       -10.5052220487        2.9338680212       -1.9151957371
 C       -12.0807884905        4.7576281793       -1.7908959608
 C       -12.4148497182        5.8012500856       -0.6204350871
 O       -13.5485130659        5.8971109305       -0.2094872171
 C       -11.1647342904        6.6431788336       -0.0535778607
 C       -11.2950859053        8.1821057632        0.1120612850
 C       -12.0087240451        8.9124308473       -1.0380879465
 O       -12.3759418609        8.1973390409       -1.9901575967
 C       -12.4985047332       10.4479663116       -0.9911113415
 C       -11.2345474088       11.3608675463       -0.5797628568
 O       -10.2147534141       10.9214844782       -0.0436665663
 C       -11.0520769141       12.7570393520       -1.2081431115
 C        -9.9975384450       13.5457071704       -0.3174839896
 C       -10.3922075660       15.1293028470       -0.1155854928
 O       -11.3225723760       15.5543792545       -0.8560889993
 C        -9.7865663163       16.0598537027        0.9583886730
 C        -8.2104649666       16.4160798009        0.7718390431
 O        -7.4281078500       16.2806939330        1.7419808786
 C        -7.8664261896       16.7867437299       -0.6914625077
 C       -10.5240241151       17.4456887754        0.8279455318
 C        -9.9890013758       15.6449952871        2.5552583234
 C       -13.0596966569       10.8849035582       -2.4096157839
 C       -13.5719566983       10.3021845761        0.1044506163
 C       -11.4049697984        5.4667123983       -3.0427358752
 C       -13.3379397565        4.1439979178       -2.3500122306
 C        -7.7933139595        1.8781398953       -0.7645365886
 C        -8.8959647420        0.0407035287       -2.0315187078
 C        -6.1496350221       -5.0279463120        3.2073077478
 C        -4.2976825360       -4.6318884795        1.3976495271
 C       -12.5321699166       -4.9039807694       -0.1913611229
 C       -11.7163107136       -6.8279675495       -1.4159917509
 H       -11.0673757431       -3.7968377485       -4.1291279608
 H       -12.1506966701       -5.0972232879       -3.6169050269
 H       -10.6586116697       -5.4745106703       -3.8928730834
 H        -8.4329297711       -6.1403009471       -0.9532467913
 H        -9.2333421760       -7.3280382226        0.0101553059
 H        -7.3132698890       -7.1963490616        1.1651576458
 H        -7.9929523339       -5.8129114447        1.9200972438
 H        -5.6396433539       -2.3286787628       -0.3299537028
 H        -4.5096795276       -1.8439766392        0.9461613146
 H        -5.7681453724        0.1419808649       -0.1248410212
 H        -6.4037251174        0.0372280292        1.6055005888
 H        -9.4758645784        2.6557660645        1.0339265885
 H       -10.7900817726        1.6937217252        1.7719467415
 H       -11.1531621953        4.1002780373        0.9036296986
 H       -12.5114362042        3.0004178786        0.4199036802
 H       -10.4085170584        6.4723228812       -0.8273328103
 H       -10.8360748812        6.1211191215        0.8238156057
 H       -10.2577341174        8.5281205592        0.3321456572
 H       -11.9099840306        8.3217077940        0.9569913382
 H       -11.9610837442       13.4360637985       -1.2872694523
 H       -10.7214059330       12.6276456023       -2.2869573590
 H        -8.9141659677       13.3913162264       -0.5813073512
 H        -9.9582229730       13.0264585037        0.6133591643
 H        -8.6098259143       16.2330937633       -1.3248662574
 H        -6.9757473526       16.6853334683       -1.2045435719
 H        -8.0345612838       17.8582874404       -0.9056757549
 H        -9.8686974926       18.3431113218        1.0408775222
 H       -11.4986724865       17.2736882960        1.3254320205
 H       -10.9463230265       17.7222012633       -0.0889658296
 H        -9.6737005738       16.4778656559        3.1797383159
 H        -9.3350947483       14.8510078088        2.6869007463
 H       -10.9964678087       15.4081397192        2.8984273940
 H       -12.2588843776       11.2430893072       -3.0428330594
 H       -13.9083824956       11.6022215276       -2.1534715234
 H       -13.6309128923       10.1640918588       -3.0850314352
 H       -14.0787782255       11.1951806357        0.3461481796
 H       -13.0732018739        9.8569828627        0.9174273255
 H       -14.2258565030        9.5893948257       -0.3249111373
 H       -11.1664888837        6.5233561999       -2.6639173548
 H       -11.9848669220        5.6760336188       -3.8960826760
 H       -10.4220451432        4.9174909667       -3.3076067479
 H       -13.7633617841        5.0233748264       -2.9433123909
 H       -14.0908818094        3.9529837247       -1.5629909384
 H       -13.0951249371        3.2647044752       -2.9482380632
 H        -8.4928454962        2.4722296061       -1.3542756520
 H        -6.6407054277        1.8119587376       -1.0458047593
 H        -7.5427111102        2.5981419896        0.1113134742
 H        -8.6507080817        0.8934531114       -2.6542064550
 H        -9.7670640379       -0.4865839086       -2.2415887247
 H        -8.1783444696       -0.7488831607       -2.2420076190
 H        -5.5499948441       -4.7484392425        4.0873171753
 H        -6.1610458295       -6.0868660382        3.0063885299
 H        -7.1891955348       -4.6796288130        3.3491167399
 H        -4.0310036750       -5.6546845553        1.4236685227
 H        -3.7380802775       -4.2429013242        2.2064901938
 H        -4.2639600689       -4.1138758966        0.3770689416
 H       -12.4338674583       -3.8443389539       -0.0550948413
 H       -12.7644460109       -5.3906963350        0.6846448806
 H       -13.3288096566       -4.9610695580       -0.9149611503
 H       -10.9626381085       -7.4232373472       -1.8690819386
 H       -12.2648526690       -6.5332709469       -2.2206940485
 H       -12.3210758382       -7.4770727830       -0.8691578938
 Na      -10.7685592697       -2.3716451363        0.0896633175
