117

 C       -11.1580526665       -4.7500183093       -3.4193044618
 C       -10.9361586921       -4.3999720250       -2.0384248143
 O       -10.1673833890       -3.4665784043       -1.6708200635
 C       -11.3431237543       -5.3008550253       -0.9556264970
 C       -10.0791953738       -5.3795199853        0.0359130645
 O        -9.9675759488       -4.5313630976        0.8856723109
 C        -8.8375969745       -6.4401337933       -0.1395109027
 C        -7.8402642812       -6.0682725221        1.0446421690
 C        -6.6643449369       -5.1023871339        0.6495674399
 O        -6.4090572786       -4.9044597633       -0.5430924434
 C        -5.8203789680       -4.5416063657        1.7405947703
 C        -6.2641166967       -2.8828030399        1.9301427507
 O        -6.9710512789       -2.4854682477        2.8419466716
 C        -5.6551065183       -1.9508813740        0.9136800606
 C        -6.3970111464       -0.4885242405        0.5639219785
 C        -7.8305546529       -0.4649584859        0.1277384392
 O        -8.4208304922       -1.5249366437        0.2999251291
 C        -8.7226080763        0.6800857714       -0.6844662445
 C       -10.1252263904        0.7452947913        0.1388764173
 O       -10.9326017717       -0.1511514760        0.1143330931
 C       -10.4339287722        2.1110008511        0.8881851871
 C       -11.4383353745        2.9785028792        0.1812484253
 C       -11.2036920521        3.4995817753       -1.2674645512
 O       -10.4316008956        2.9155193231       -2.0464083723
 C       -12.0667922311        4.8006621112       -1.8103131605
 C       -12.3674100319        5.8566971078       -0.7366676942
 O       -13.4561877626        5.8853688594       -0.2545182578
 C       -11.1946742700        6.6929517014       -0.0073802670
 C       -11.2567679401        8.2121705416        0.0984336228
 C       -11.9835427999        8.8339683655       -1.0738061094
 O       -12.4523199056        8.1476505819       -1.9938399846
 C       -12.2371177834       10.3433171180       -1.1019843911
 C       -10.9615475994       11.2838564192       -0.8453196965
 O       -10.0053688229       10.8020021652       -0.2882582083
 C       -11.1406832829       12.8614203473       -0.9996733310
 C       -10.1195222960       13.6233706128       -0.2469610170
 C       -10.4864722042       15.0514748524       -0.0927482143
 O       -11.2861036595       15.4960093870       -0.8835459608
 C        -9.7491244893       15.9639567003        0.9167518467
 C        -8.3005713432       16.2923272740        0.6769382618
 O        -7.4073791162       16.3665911873        1.5099194741
 C        -7.8383425919       16.8646327568       -0.6389576910
 C       -10.4619933833       17.3721742409        0.7512018989
 C        -9.8354592055       15.6271241156        2.4351090167
 C       -12.9705328452       10.7388080264       -2.2900258001
 C       -13.4552799668       10.4501495333        0.0554489344
 C       -11.3707666473        5.4175127414       -3.0420090538
 C       -13.5253862009        4.1854954152       -2.2997389324
 C        -7.8585197140        1.8817622653       -0.7157969679
 C        -9.0446603323       -0.0021608210       -2.0151045372
 C        -6.1744608168       -5.1722261853        3.0993019349
 C        -4.2431785680       -4.6527645502        1.4976097788
 C       -12.6051076504       -4.7189588599       -0.1327232720
 C       -11.6441255129       -6.8011024413       -1.3775123248
 H       -11.0109533537       -3.8972825425       -4.0506470651
 H       -12.2327115350       -5.0644175585       -3.2442810210
 H       -10.7839455768       -5.7843159203       -3.7688973153
 H        -8.2675681695       -6.1938497818       -0.9906076328
 H        -9.0591087293       -7.4513644540       -0.1093840929
 H        -7.3662351389       -6.9738123244        1.4642883507
 H        -8.3806537522       -5.4981489585        1.9541798075
 H        -5.3927019455       -2.4424011035        0.0167963694
 H        -4.7288904985       -1.6171705654        1.3934267615
 H        -5.7753907215       -0.0127309972       -0.1894789106
 H        -6.4335091937        0.2116021850        1.4350144329
 H        -9.5515105012        2.5802201664        1.1513428624
 H       -10.8408403272        1.6935133028        1.7945203517
 H       -11.6552934924        3.7651302395        0.8434046183
 H       -12.3415804104        2.4296059740        0.0155129194
 H       -10.3462237694        6.3326678650       -0.6523707816
 H       -11.0104145103        6.2130659885        0.9073097790
 H       -10.2842493488        8.6607523371        0.3170674831
 H       -11.9411207468        8.3064543367        0.9299727164
 H       -12.2016050472       13.2084813978       -0.8497122927
 H       -10.9285740107       13.1333829227       -2.0327068584
 H        -9.1586114015       13.5934143474       -0.7625015237
 H        -9.7545449064       13.1254483523        0.6733910769
 H        -8.5381872303       16.6707240007       -1.4315229126
 H        -6.8898809078       16.5763318055       -1.1150099236
 H        -7.7177014786       17.9731751232       -0.6124316397
 H       -10.0122506647       18.1055079831        1.2722908244
 H       -11.5123399526       17.1643311366        0.8192088804
 H       -10.4114981591       17.8274952733       -0.2165223054
 H        -9.7688188774       16.3691154675        3.1094073589
 H        -9.0453669681       14.8247093677        2.5544978710
 H       -10.8191648279       15.2107090537        2.5886069763
 H       -12.3957508533       10.8420623253       -3.1414030883
 H       -13.8516066169       11.4008605451       -2.0969964749
 H       -13.5518313143        9.8112432896       -2.5849027632
 H       -13.8646059527       11.4339507644       -0.0429764604
 H       -13.1320470501       10.3263341212        1.0541106287
 H       -14.0959185321        9.7708763295       -0.3088333889
 H       -10.9830845746        6.3616422898       -2.7468551097
 H       -12.0842764477        5.7352162027       -3.8155053034
 H       -10.6339905149        4.7785683506       -3.4085694911
 H       -14.0793324730        5.0213684923       -2.7744860127
 H       -14.1336424434        3.9033634404       -1.3908701773
 H       -13.3252503866        3.2983249825       -3.0003763686
 H        -8.4088862480        2.6399895940       -1.2544203338
 H        -6.8027326735        1.8345280700       -0.7755363936
 H        -7.9189674752        2.2992090448        0.2441059485
 H        -9.7343718246        0.5459068065       -2.5293772684
 H        -9.3123607830       -1.0714655336       -1.8085430964
 H        -8.1777100269       -0.1892276442       -2.5322923992
 H        -5.5766110255       -4.6871508692        3.8774337550
 H        -5.9399122678       -6.1790507100        3.1307176252
 H        -7.1780038575       -4.8815008210        3.2888538942
 H        -4.1156238362       -5.6732909020        1.2433827305
 H        -3.7743528661       -4.6556687087        2.4701192892
 H        -3.9393779667       -3.9931776549        0.6914715559
 H       -12.4341916593       -3.7622312362        0.3664890956
 H       -12.9295009806       -5.5481614415        0.5289680234
 H       -13.3870611184       -4.5248167039       -0.8504829105
 H       -10.7551327572       -7.3393487923       -1.6081725968
 H       -12.2057853639       -6.9249995767       -2.2689817336
 H       -12.2349543820       -7.2715715980       -0.6426472925
 Na      -10.6417757984       -2.1623366018        0.1251649546
