117

 C        -5.1532911355       -1.3006095511        9.2439272519
 C        -6.6564993991       -1.0997785373        9.0413590707
 O        -7.3794934578       -0.4129772773        9.7359408314
 C        -7.1883883865       -1.7024974190        7.7037982500
 C        -6.6067659068       -0.8779535776        6.6564282163
 O        -5.8203507330       -1.4750358889        5.8653440351
 C        -6.9568160896        0.5636907231        6.5562784719
 C        -6.1623528217        1.2466838119        5.3680927852
 C        -6.7427789247        2.5440646308        4.9515142118
 O        -7.9011970053        2.7898981669        4.9599386424
 C        -5.8216117573        3.7602222323        4.4093629196
 C        -5.6279039923        3.6112619795        2.8452663423
 O        -4.8304075586        2.8286145221        2.3977660522
 C        -6.5633027396        4.4644660180        1.9047093691
 C        -6.1983739568        4.2894859467        0.4118939461
 C        -7.5233864465        4.0228153879       -0.3232510325
 O        -8.1455220198        4.8703784865       -0.9939392190
 C        -8.2909550647        2.5747986696       -0.1715351448
 C        -9.6151289118        2.9398072880        0.6117817219
 O        -9.6132974057        3.8360050596        1.4684210812
 C       -10.9404272435        2.0812681800        0.4957615901
 C       -12.2239350925        2.9311411430        0.9237337348
 C       -12.4330098816        4.1109209055        0.0347555226
 O       -11.4675785738        4.7842174351       -0.2300622510
 C       -13.7796687656        4.6255573410       -0.6975127302
 C       -13.6706267153        4.2737141977       -2.3164463653
 O       -12.5895541064        3.9104686781       -2.7676265806
 C       -14.9425208309        4.3487353099       -3.1344651721
 C       -14.6704382431        5.0773352189       -4.5226478258
 C       -15.2962130281        6.4875510250       -4.5276771280
 O       -15.9632429888        6.9540993376       -3.6369172445
 C       -14.9384326659        7.3138350994       -5.8437269412
 C       -13.5049027195        6.9084259019       -6.4305967583
 O       -13.4017356203        6.0476472732       -7.2682339648
 C       -12.2229808542        7.4893026948       -5.7100678822
 C       -11.0511131020        6.7649964741       -6.1470832728
 C       -10.1858632423        6.1678014563       -4.9715161787
 O       -10.5903507634        6.1306928876       -3.8507635134
 C        -8.8550750019        5.4956597670       -5.3323556731
 C        -9.0755095983        3.8906177154       -5.0547035471
 O        -9.6570468732        3.4825262745       -4.0805931478
 C        -8.5185134025        2.9021863131       -6.0070654081
 C        -8.3557681783        5.8112298990       -6.6994506864
 C        -7.5713138884        5.8080498736       -4.4184836778
 C       -16.0052053029        6.8346560145       -6.8797094096
 C       -15.0359434305        8.8362086928       -5.5215880392
 C       -14.9455341075        3.9909593411        0.0217004009
 C       -13.8150884892        6.1451024644       -0.8576257808
 C        -8.3985741535        1.8553863174       -1.5662419955
 C        -7.7768371119        1.4870829222        0.7927073390
 C        -6.5631987942        5.0265481549        4.9341357352
 C        -4.3501345584        3.7889154273        4.9556530978
 C        -6.6913171587       -3.1628338975        7.6297747627
 C        -8.6844273469       -1.7888337660        7.7134734147
 H        -4.7941664402       -0.5162948089        9.9409114813
 H        -4.5530532837       -1.3756379929        8.2691477156
 H        -4.9413934610       -2.2203052274        9.7118192018
 H        -6.8318093494        1.1835579360        7.4257727246
 H        -8.0859942724        0.5900776423        6.2760028393
 H        -6.2075192659        0.5345039895        4.5354079090
 H        -5.1546755834        1.4270007795        5.7853633645
 H        -6.4528277282        5.4891250749        2.1849364331
 H        -7.5910399638        4.1815301553        2.2620791174
 H        -5.6011719297        3.4040232491        0.2708424100
 H        -5.6142519048        5.1748802804        0.1490433995
 H       -10.8541612550        1.2193332426        1.2250811078
 H       -11.0875600214        1.5334807725       -0.4139543159
 H       -11.9429563138        3.4517027479        1.9162679617
 H       -13.1241277911        2.3534253906        1.2302718595
 H       -15.7438914405        4.8673359983       -2.5362247703
 H       -15.1593528211        3.2911105865       -3.3306891026
 H       -14.9444403091        4.4050646659       -5.3221631681
 H       -13.6201639757        5.1458757270       -4.5928936096
 H       -12.3821814300        7.1970252425       -4.6335800757
 H       -12.2468428069        8.6154322055       -5.7523850705
 H       -10.2364917355        7.3903794275       -6.5990774427
 H       -11.4231483330        6.0375639239       -6.8897060582
 H        -7.8337927457        2.2686375734       -5.4203643100
 H        -8.0658621885        3.3813254576       -6.8390271856
 H        -9.4672280523        2.4206454174       -6.3580986248
 H        -8.4263472128        6.9147939390       -6.7448417448
 H        -8.9212564726        5.3833734740       -7.5376212078
 H        -7.2820340321        5.5501722002       -6.8570280228
 H        -7.9096807534        5.8657888243       -3.4458498538
 H        -6.9617417721        6.6813809396       -4.8489385510
 H        -6.8605053986        4.9469995785       -4.3427265691
 H       -15.8816566086        5.8088030564       -7.2114189868
 H       -15.9715879787        7.5063070415       -7.7554707957
 H       -16.9431917216        6.9134610731       -6.4657853020
 H       -14.8174779988        9.5375310356       -6.3272251537
 H       -14.4888872167        9.0913565891       -4.6828878812
 H       -16.0194951409        8.9965514280       -5.1209306202
 H       -15.0338455174        4.2411650592        1.0674105013
 H       -14.8960272422        2.8837531407       -0.0080632573
 H       -15.8338423734        4.2632438852       -0.4931385767
 H       -13.6388597438        6.7772495728        0.0975943321
 H       -14.8282956731        6.4792082538       -1.2306835541
 H       -13.0900770886        6.4910802301       -1.6130923099
 H        -9.0562400928        0.9643997147       -1.4866760385
 H        -7.4127883013        1.5189932614       -1.8045375119
 H        -8.7983708160        2.6631710250       -2.2815896898
 H        -7.7165114122        1.8023154674        1.8273104518
 H        -6.8953020181        1.1211476162        0.4198132934
 H        -8.5432062572        0.6826704695        0.6971531154
 H        -6.4798469827        4.8495538504        6.0293009133
 H        -7.5930970861        5.1874633613        4.5709561516
 H        -5.9586894635        5.9098709735        4.8703366264
 H        -4.2159867396        3.4860602164        5.9980833003
 H        -3.7967314223        4.7412505342        4.8418832345
 H        -3.8082663838        3.0097524404        4.4171359649
 H        -5.5796682943       -3.1187708475        7.5549117545
 H        -7.0850016326       -3.6597553858        6.7763838694
 H        -6.9588377765       -3.7142486988        8.5703111773
 H        -9.0630779600       -1.4642794329        8.6603623712
 H        -9.0415376073       -2.7389079117        7.4009917996
 H        -9.0815328298       -1.1296504565        6.9653417162
 Na      -10.1005121059        4.6798126759       -2.0869608155
