117

 C       -11.1303187881       -4.7184044332       -3.5626180230
 C       -10.7990426973       -4.4486550611       -2.0197126267
 O       -10.5019106598       -3.2881694204       -1.8395031000
 C       -11.4051411061       -5.3863953020       -0.9161748630
 C       -10.1984159445       -5.3114865916        0.3175181609
 O       -10.1996991193       -4.4172914083        1.1811481562
 C        -8.9492940312       -6.1378441539        0.0123524075
 C        -7.8669432526       -6.0257790142        0.9929327418
 C        -6.9056640605       -4.8823065146        0.6876879231
 O        -6.5909239750       -4.4977729152       -0.4146939258
 C        -5.9758048186       -4.4127041537        1.8757058459
 C        -6.4381278890       -2.8665220795        2.1406058451
 O        -7.0069185536       -2.4619429814        3.1119464448
 C        -5.8597532604       -1.8781237307        1.0563573802
 C        -6.5533117374       -0.4842951464        0.8477874946
 C        -7.9619979066       -0.6794480672        0.0913044988
 O        -8.2430991270       -1.8549461905        0.0755086988
 C        -8.7579819613        0.5005635324       -0.4784305540
 C       -10.1004596940        0.9448634926        0.2322024736
 O       -10.8916045231       -0.0052896059        0.2665926990
 C       -10.4839814318        2.4253625316        0.7345879149
 C       -11.7195210915        2.7957390814       -0.0569183526
 C       -11.2637338808        3.4680934545       -1.3466839505
 O       -10.3544989498        3.0470851354       -2.0008119448
 C       -12.0230186145        4.7010586214       -1.7344304927
 C       -12.1961797343        5.7920503580       -0.5852829001
 O       -13.3344601709        6.0318513501       -0.1978305707
 C       -10.8884428327        6.5840350771       -0.1156788552
 C       -11.3239904266        8.0389994992        0.1150767465
 C       -11.9737049906        8.6389658810       -1.1388930655
 O       -12.3705368843        7.9845245258       -2.1023972028
 C       -12.2213030908       10.2359138770       -1.1117598382
 C       -10.8527314642       11.1309140277       -0.9376953508
 O        -9.7775603377       10.5467430406       -0.9029910917
 C       -11.1886178913       12.7119314086       -0.6856042654
 C       -10.0560792453       13.5294018453        0.0528365369
 C       -10.3624071967       15.1407009730       -0.2203950002
 O       -11.3300362323       15.4131606816       -0.9574089892
 C        -9.7046354026       16.1470111442        0.7158232830
 C        -8.1946799432       16.4304195225        0.4191104289
 O        -7.3313739644       16.1278000443        1.2770260430
 C        -7.8994809571       16.9019295966       -0.8783949717
 C       -10.5048050318       17.4499022242        0.8220555363
 C        -9.8415187473       15.3551013605        2.1212044670
 C       -12.7284792289       10.6849845703       -2.4810246091
 C       -13.0291550102       10.7296920706        0.0983227326
 C       -11.3724201360        5.2813216184       -3.0371612605
 C       -13.4313589341        4.1682670031       -2.1527010905
 C        -7.8987520999        1.7451624526       -0.6877313523
 C        -9.1397437571        0.1423997224       -1.9803522195
 C        -6.1996410934       -5.1225693592        3.2062313714
 C        -4.4729951605       -4.4397832909        1.4231973506
 C       -12.6681019235       -4.7869177039       -0.2582253224
 C       -11.7748530352       -6.8056200263       -1.4061348839
 H       -10.4371582306       -3.9031289623       -4.0071441089
 H       -12.1917897361       -4.7392829536       -3.8357348367
 H       -10.8854203426       -5.7222671370       -3.7883812179
 H        -8.5600272987       -5.6356360934       -0.9590381248
 H        -9.2264403591       -7.2724077243       -0.1211752793
 H        -7.1947914805       -6.9227872930        1.0603358406
 H        -8.2722324463       -5.9260493302        1.9054927141
 H        -5.8184937952       -2.4234289320        0.0591878278
 H        -4.8177662260       -1.5350647836        1.2628726799
 H        -5.7920482510        0.0923119221        0.3369262018
 H        -6.7662892952       -0.0515405709        1.8330960422
 H        -9.6207220622        3.1128411046        0.4033947906
 H       -10.4577062606        2.3546795486        1.8351931264
 H       -12.3652869183        3.6052321483        0.5612271731
 H       -12.4120921268        1.9469030438       -0.2135611682
 H       -10.1155680676        6.2920357920       -0.8273374786
 H       -10.4580876494        6.0028657622        0.8092855182
 H       -10.3947477688        8.6566134499        0.1725436082
 H       -11.9048579111        8.0137642514        1.0642689288
 H       -12.1033682499       12.7225817635       -0.1180535805
 H       -11.3710362202       13.3223330339       -1.5808822283
 H        -9.1160930914       13.3777984155       -0.5362723790
 H        -9.6966799891       13.2026344481        1.0162886155
 H        -8.6564323334       16.9796570628       -1.6931765740
 H        -7.1225380442       16.2978572697       -1.2994188481
 H        -7.3877413484       17.8504640207       -0.8574429842
 H       -10.2712152534       17.9251503845        1.8328093517
 H       -11.5477107796       17.2279236287        0.5499695982
 H       -10.1446951204       18.3093504241        0.3032750581
 H        -9.5527750735       16.1636646477        2.9230588449
 H        -9.1285149350       14.5835741947        2.2071960024
 H       -10.9088834105       15.1563923024        2.3980807565
 H       -12.2519388968        9.9623392463       -3.1350297555
 H       -12.6783533359       11.7283798001       -2.6679104068
 H       -13.7367992218       10.5202025316       -2.7072442675
 H       -13.5485192693       11.7124987185       -0.0432585976
 H       -12.3193183791       11.0214232248        0.9440533599
 H       -13.7757899561        9.8624540366        0.2142000025
 H       -10.2868618878        5.4914346327       -2.7364535526
 H       -11.8230163961        6.1983912895       -3.3185880715
 H       -11.5283876032        4.4761251042       -3.8265790147
 H       -14.0991919915        5.0145730217       -2.2498547814
 H       -13.8071729370        3.5156759820       -1.4153360412
 H       -13.2868858238        3.7028319134       -3.0631005077
 H        -8.4742689245        2.5754380013       -0.8922461439
 H        -7.1942128317        1.4214146652       -1.5080527742
 H        -7.2654236816        2.0402259633        0.1742390987
 H       -10.1608635752       -0.4020848075       -1.8718209243
 H        -8.3605826644       -0.2959682269       -2.5630826489
 H        -9.2732065005        1.1596282888       -2.5356788112
 H        -5.4666556542       -4.7536770688        3.9075976681
 H        -5.7915029230       -6.1363702254        3.0807754739
 H        -7.1884486058       -4.9021388922        3.6341609737
 H        -4.1562206582       -5.4698235136        1.1938676423
 H        -3.9317173148       -4.1439586592        2.2961308471
 H        -4.3873387548       -3.8525608727        0.4608659865
 H       -12.2370089142       -3.9926293410        0.4035980000
 H       -13.2108424523       -5.5543693620        0.2991951122
 H       -13.3922991813       -4.2712195690       -0.9734488627
 H       -11.1613989848       -7.0446971628       -2.3453285597
 H       -12.8564790506       -6.9456147284       -1.7204030924
 H       -11.7363195150       -7.5624978602       -0.5465422025
 Na      -10.3169603385       -2.3137186943        0.3280448183
