117

 C       -11.0979724823       -4.8441963253       -3.6281805784
 C       -11.0791257340       -4.3334348410       -2.1497591367
 O       -10.6747457154       -3.2152488955       -1.8257163444
 C       -11.3952122219       -5.2441986243       -0.8290074164
 C       -10.2133472430       -5.1707040799        0.1877727483
 O       -10.3620393065       -4.5075493630        1.2374935877
 C        -8.9976305819       -6.0819493689        0.0199645373
 C        -7.8052361710       -6.0395236524        1.0556421302
 C        -6.8182500681       -4.8717130191        0.7849242309
 O        -6.8746439736       -4.2983198544       -0.2994243571
 C        -5.9650605014       -4.2378793019        1.9583695369
 C        -6.4773366430       -2.7843181014        2.1204519165
 O        -7.0437831620       -2.3643109023        3.1327912444
 C        -5.8004521519       -1.8392419483        1.0863823082
 C        -6.6930126226       -0.5474288518        1.1147288044
 C        -7.9217177668       -0.7268144491        0.2290756999
 O        -8.2984732459       -1.8456292517       -0.1137306326
 C        -8.6482222755        0.4835252774       -0.5496082369
 C       -10.0647686796        0.8357879422        0.2735178703
 O       -10.9075274100        0.0111375114        0.5269239964
 C       -10.4507657636        2.2112971090        0.6035226246
 C       -11.7118721007        2.7139627952       -0.0702999249
 C       -11.3296434676        3.4682762077       -1.3149142148
 O       -10.2955932525        3.0447399030       -1.8539691834
 C       -12.1492596622        4.6407744981       -1.8428899198
 C       -12.1120654725        5.7879288169       -0.6928866307
 O       -13.1153479775        6.0128811799       -0.0882534452
 C       -10.8931473263        6.6213278154       -0.2604777088
 C       -11.2832745476        8.0603141135        0.1088970048
 C       -11.8255927400        8.7922510094       -1.0954913865
 O       -12.2641047248        8.0707220144       -2.0438188340
 C       -12.1015496649       10.2663576989       -1.0538135587
 C       -10.7595702233       11.0707603598       -0.8960845200
 O        -9.6836297541       10.5885212177       -1.2275547569
 C       -10.9762971324       12.5430323334       -0.7416117157
 C        -9.9320092291       13.5484373717       -0.1637198120
 C       -10.4531014502       14.9852143181       -0.2400425269
 O       -11.2316003934       15.3496219154       -1.0687784197
 C        -9.7558716805       16.0998124896        0.8029133886
 C        -8.1256612178       16.2870824138        0.2834522078
 O        -7.2556207121       16.0224966437        1.1237187586
 C        -7.9392552916       16.9168386581       -1.0437509333
 C       -10.5391529873       17.3913904641        0.8171272906
 C        -9.7935965061       15.4575931278        2.2639266025
 C       -12.6733484204       10.6379405897       -2.4841644776
 C       -13.2163229502       10.4359593444        0.0681058113
 C       -11.3998576099        5.3867348944       -3.0705375879
 C       -13.5909606977        4.1948990257       -2.1802614602
 C        -7.5342554566        1.7353552680       -0.6014035692
 C        -9.2473669686        0.0908367789       -1.8734529987
 C        -6.2400911367       -5.0096112163        3.2789308328
 C        -4.5866815787       -4.3031449853        1.3720473248
 C       -12.8079938912       -4.7404374598       -0.3489503830
 C       -11.6477952790       -6.6983825607       -1.3298059623
 H       -10.4266883324       -4.3218666030       -4.1357911867
 H       -12.0128618037       -4.9024415143       -4.0838588480
 H       -10.8701857584       -5.8330517067       -3.4796340882
 H        -8.5870171471       -5.6852784660       -0.9324712940
 H        -9.3527031658       -7.1591612747       -0.0757309232
 H        -7.2007578076       -6.8844816822        0.9816467189
 H        -8.2031122506       -6.0506166678        2.0803841005
 H        -5.8294870917       -2.3523582153        0.1254314419
 H        -4.7514539900       -1.5194142086        1.2966135255
 H        -6.1229474640        0.3363262421        0.7193607767
 H        -7.0022445219       -0.4273043894        2.2721595214
 H        -9.5644680381        2.8781394641        0.4335022329
 H       -10.6106642698        2.1534338759        1.7655390153
 H       -12.2447374032        3.4128318664        0.6946012886
 H       -12.4468898360        1.8713042403       -0.1910889886
 H       -10.0958134262        6.4666469264       -0.9688762192
 H       -10.4597675121        6.0032643536        0.5191676924
 H       -10.3548039332        8.4974231826        0.6036640225
 H       -12.1014698895        7.9595326512        0.7926724311
 H       -11.9195332265       12.7231039687       -0.1218023103
 H       -11.2081648499       12.9446052332       -1.7614622234
 H        -8.8252063721       13.5055729692       -0.3690584713
 H        -9.8579801243       13.3699324494        0.9011953653
 H        -8.7549189042       17.1824484929       -1.6819853653
 H        -7.2754806649       16.3629495476       -1.6466853672
 H        -7.3297501037       17.8334102242       -0.9225150437
 H       -10.3913561512       17.9447161028        1.7653674583
 H       -11.6350079892       17.0579991847        0.5352922512
 H       -10.1975912506       18.2318462235        0.1968960569
 H        -9.4409667732       16.2477167605        2.8451008512
 H        -8.9522879088       14.7553329563        2.3966248946
 H       -10.7697386078       15.2369304153        2.7399660804
 H       -12.5653827715        9.9163423460       -3.1956768113
 H       -12.4186395008       11.7053620491       -2.6864187206
 H       -13.7862991162       10.8191100566       -2.5065206117
 H       -14.0592827107       11.1895925575       -0.0976557252
 H       -12.7229071045       10.8974575092        0.9626652647
 H       -13.5607831499        9.4625732466        0.1042381493
 H       -10.2786620516        5.1528682402       -2.9257522648
 H       -11.5190501637        6.5285534942       -3.0874963494
 H       -11.8666368429        4.9364540976       -3.9954919996
 H       -14.1777849588        5.0684681347       -2.3295411348
 H       -13.9750487521        3.6049094486       -1.4216792481
 H       -13.4990594573        3.7012968933       -3.1027180809
 H        -7.8155560809        2.7297510171       -1.1117704948
 H        -6.5609752990        1.2500405675       -0.9922173702
 H        -7.3303922173        2.0655068421        0.4950616172
 H        -9.3762459194       -0.9883754957       -1.8192816810
 H        -8.6477574871        0.5523783733       -2.7729634353
 H       -10.2111563976        0.5825551611       -2.1016489929
 H        -5.4978089054       -4.8693584346        4.1241854674
 H        -6.0441360175       -6.0266910901        3.0213735045
 H        -7.2466604419       -4.6616911153        3.6463667200
 H        -4.1553077576       -5.2633887935        1.5139398001
 H        -4.0559958075       -3.5523042635        1.9764101029
 H        -4.6726367356       -4.1275957727        0.2287386467
 H       -12.7897315340       -3.8015105226        0.1936513905
 H       -13.2371828817       -5.5244103743        0.2562322204
 H       -13.4629872087       -4.6705774259       -1.2217915776
 H       -11.0803644024       -6.8620557657       -2.2669438770
 H       -12.6892734214       -6.8512100103       -1.5857530381
 H       -11.5307858248       -7.4901041498       -0.5798948536
 Na      -10.3347085204       -2.3961093170        0.3951458684
