117

 C       -10.9946147619       -4.8316378872       -3.4526199745
 C       -11.1197475340       -4.2723055256       -2.1060082755
 O       -10.9105126540       -3.0545628351       -1.9633844303
 C       -11.4795590171       -5.2443546266       -0.9204351970
 C       -10.3100756008       -5.1676944852        0.1697210686
 O       -10.4969907761       -4.5802778652        1.1679182328
 C        -9.0663178488       -6.0808874708       -0.1144071323
 C        -8.0015076103       -5.9823936487        1.0549217671
 C        -7.1183096830       -4.6825454720        0.8894009736
 O        -7.1087672080       -4.1698770817       -0.2044337089
 C        -6.0463812759       -4.2004718167        1.9843434697
 C        -6.2665428110       -2.6981966126        2.2251263927
 O        -7.1064214872       -2.3663556770        3.0507306656
 C        -5.9065884592       -1.6040628163        1.1994669763
 C        -6.9187052142       -0.4599593280        1.2123665323
 C        -7.8375669416       -0.7172628512        0.1465741549
 O        -8.3102828141       -1.8358606559       -0.1584824494
 C        -8.6992778149        0.4714794869       -0.4186207772
 C        -9.9436813581        0.7467431138        0.4291398898
 O       -10.5799863181       -0.2315455675        0.6959926448
 C       -10.3849162607        2.2102808339        0.7721293684
 C       -11.7419204029        2.7374294844        0.0136869636
 C       -11.2977909666        3.4363624861       -1.3579984815
 O       -10.2041517795        3.1637292766       -1.8724476871
 C       -12.1760950945        4.7295223848       -1.9471451337
 C       -12.1682345755        5.8227836829       -0.7053330663
 O       -13.0814891575        5.8871267666        0.0746737662
 C       -10.7875802496        6.5790898843       -0.4030715196
 C       -11.1151397331        7.9637053308        0.0983827414
 C       -11.8306924928        8.7355813083       -1.0971733796
 O       -12.1076839956        8.1131269344       -2.0642821109
 C       -12.0177809374       10.2641968361       -1.0307057864
 C       -10.6645064115       11.1414880620       -1.0471067250
 O        -9.6415662553       10.6198326327       -1.3788458080
 C       -10.9177431201       12.6029507483       -0.7875174510
 C        -9.8117911750       13.4563549492       -0.2521136797
 C       -10.3307883373       14.8900223953       -0.2337484539
 O       -11.0466266171       15.3242577845       -1.0651051802
 C        -9.7139618863       16.0088687241        0.8718854598
 C        -8.2779508107       16.2418038240        0.2968708272
 O        -7.3286231566       15.8746205135        0.8597860406
 C        -8.0394483302       16.9079543934       -1.1197120403
 C       -10.5286834331       17.2603774279        0.6762959236
 C        -9.6497723522       15.5334169144        2.3316236542
 C       -12.7194539711       10.6729582667       -2.4781922993
 C       -13.2656131145       10.2669244104        0.0063644727
 C       -11.4266395828        5.3044684969       -3.1910072337
 C       -13.6166812529        4.3849537382       -2.1640482370
 C        -7.6112106491        1.6252772659       -0.5055899162
 C        -9.1585667692        0.0367099386       -1.8684191981
 C        -6.1890656645       -4.9784854211        3.3898612992
 C        -4.5020047465       -4.2960912707        1.4569871992
 C       -12.7978290392       -4.6365278190       -0.3654356875
 C       -11.5105670943       -6.8005013346       -1.2250036632
 H       -10.5937358253       -4.1499826297       -4.1559257090
 H       -12.0502546458       -4.8183593801       -3.5375219778
 H       -10.7942087435       -5.8686135148       -3.4914537200
 H        -8.6916235687       -5.8684358470       -1.0701747289
 H        -9.4087357364       -7.0401896265       -0.0085646545
 H        -7.2514099272       -6.7441280065        1.0437232793
 H        -8.6729069237       -6.1769045844        2.0278142232
 H        -5.9207116837       -2.1128692286        0.2633308611
 H        -4.9371568489       -1.1576610225        1.3379292048
 H        -6.5275278550        0.6171858276        1.1705547514
 H        -7.5846390889       -0.6454778016        2.1469223136
 H        -9.5212270719        2.8408285974        0.5907452797
 H       -10.6174401275        2.2619313438        1.8800769283
 H       -12.3097452207        3.2961890834        0.5870313562
 H       -12.2807965868        1.7599559132       -0.0814942470
 H       -10.2167115304        6.6075679878       -1.3211307259
 H       -10.1573921547        5.9634611805        0.0784549171
 H       -10.2136826019        8.2550663424        0.6115486091
 H       -11.9275297491        7.8559985166        0.8087242307
 H       -11.9428345603       12.8464064664       -0.3196968614
 H       -10.9810514573       13.0692771970       -1.8317514022
 H        -8.8769140419       13.4116655497       -0.7858801898
 H        -9.4320514905       13.1812831267        0.7711550133
 H        -8.8540719316       17.2253430776       -1.7173739790
 H        -7.4418261644       16.1957405114       -1.7413968194
 H        -7.3860028359       17.7662659458       -1.1437470236
 H       -10.2749386458       18.0152032051        1.3920183190
 H       -11.5806567331       17.0395759766        0.5498375501
 H       -10.1466247276       17.8537024498       -0.2402044196
 H        -9.2711899471       16.3499935579        2.8854948302
 H        -8.8731944352       14.7770934184        2.5546567471
 H       -10.6171648940       15.3613494255        2.7093632598
 H       -12.6931548279        9.9226868653       -3.3065639382
 H       -12.3965796462       11.7020707513       -2.6357821890
 H       -13.8184855868       10.9331676693       -2.4641056591
 H       -13.9361525096       11.0442696485       -0.2009809325
 H       -12.8710108134       10.5652509233        0.9185956075
 H       -13.7118032252        9.3276361312       -0.0918891050
 H       -10.4277112683        4.9254159922       -3.3237965611
 H       -11.3864790918        6.4633130991       -3.2314862019
 H       -12.1185275836        4.9818879614       -3.9585684868
 H       -14.1806957015        5.2363674226       -2.4223106896
 H       -13.9061586932        3.9708698242       -1.1953276260
 H       -13.6742794494        3.6543354668       -3.0026658633
 H        -7.7663764839        2.3466466169       -1.4439616132
 H        -6.6449036859        1.1182446545       -0.6397719446
 H        -7.5965643083        2.3906921832        0.3502459262
 H        -8.4077350921       -0.6797955305       -2.1682517369
 H        -9.0978168349        0.9768288652       -2.4200496979
 H       -10.1358295464       -0.3206109715       -1.9664561636
 H        -5.3402302345       -4.6108736388        4.0103303064
 H        -5.9673993560       -6.0488376807        3.3613283435
 H        -7.0534060005       -4.5597695402        3.9023712903
 H        -3.9727419574       -5.1843887753        1.8848006159
 H        -4.1344431424       -3.3357184968        1.8923551710
 H        -4.4708783067       -4.4013345005        0.4105523579
 H       -12.6740151147       -3.6139992910       -0.1690717335
 H       -12.9766877870       -5.1380663775        0.5857813047
 H       -13.6124033644       -4.8752795818       -0.9613862638
 H       -10.5857531706       -7.1056545100       -1.5403805901
 H       -12.2539818222       -7.1777709340       -1.8734972900
 H       -11.7898634966       -7.2341315351       -0.3212810683
 Na      -10.4709677186       -2.4040403446        0.4044265542
