117

 C       -10.9649844936       -4.8852188725       -3.5977294382
 C       -11.0895293010       -4.2143106733       -2.1385947008
 O       -11.1540032842       -3.0461075746       -1.8320395013
 C       -11.4192003098       -5.3004496033       -0.9164265387
 C       -10.3605059954       -5.2704292632        0.2365404699
 O       -10.5058257778       -4.5105804896        1.1812851361
 C        -9.0943176771       -6.0072266473        0.0281168137
 C        -8.1311256804       -5.7762632319        1.1862130935
 C        -7.1715059779       -4.6441439407        0.8905620528
 O        -7.2530505008       -3.9572390597       -0.0821630863
 C        -6.0611834269       -4.1060803148        2.0272824697
 C        -6.4685698020       -2.6670565791        2.2600388234
 O        -7.1951673755       -2.4092811364        3.1933175248
 C        -5.9058543837       -1.5161369299        1.3560377112
 C        -7.0002981365       -0.4462737714        1.3834138017
 C        -8.0619382333       -0.7850970010        0.2980926815
 O        -8.2545553018       -1.8774163240       -0.1407190174
 C        -8.6610376988        0.5366789551       -0.5495839566
 C        -9.9380864597        0.7411156549        0.4302123219
 O       -10.4092083619       -0.2318941076        1.0632255713
 C       -10.4361474212        2.1312876562        0.8520512125
 C       -11.5872968369        2.7664851788       -0.0803643048
 C       -11.1713216222        3.5598884505       -1.2598972683
 O       -10.2087594172        3.2919197645       -1.9141690860
 C       -12.1284497791        4.6869556062       -1.8412247483
 C       -12.0125955956        5.6913132222       -0.6867260794
 O       -12.9520355209        5.7209330848        0.1172812361
 C       -10.7298394323        6.5167701614       -0.5043582878
 C       -10.9830202292        7.9690229468       -0.0855917214
 C       -11.6868487495        8.6354774757       -1.2381470298
 O       -11.9768152899        7.9718318159       -2.1769608598
 C       -12.0576507534       10.2285540158       -1.1163403881
 C       -10.8082950946       11.1118637524       -1.1371544134
 O        -9.7171010868       10.6473967588       -1.3832152180
 C       -10.9337918226       12.6830925403       -0.8634117742
 C        -9.6793962104       13.3638168388       -0.2546300079
 C       -10.1075954143       14.9138435602       -0.1564094066
 O       -10.8755978643       15.2698593825       -1.0659127456
 C        -9.6632782747       16.0559535552        0.7925472626
 C        -8.2450394421       16.1542807923        0.1563023752
 O        -7.2799106833       15.6545842204        0.7247910573
 C        -8.1798422651       16.8498755399       -1.1517611016
 C       -10.6672047430       17.2340646315        0.5768778498
 C        -9.5010068646       15.5702551954        2.2384210646
 C       -12.7543880595       10.6577083325       -2.4514604129
 C       -13.0653764103       10.3797891089        0.0208600751
 C       -11.5381187699        5.1163479119       -3.2367797424
 C       -13.6251939657        4.4710309137       -2.1066978653
 C        -7.7626854559        1.8142724463       -0.5980362084
 C        -9.0702938334        0.1560739649       -2.0068289839
 C        -6.1061848068       -4.8822022757        3.3469000042
 C        -4.5479213829       -4.4406285297        1.5351751829
 C       -12.7353872851       -4.6851559297       -0.3145175693
 C       -11.6897667294       -6.7166876134       -1.3617966318
 H       -10.5917303879       -3.9304118922       -4.2488264007
 H       -12.0749171837       -5.1392256365       -3.8282858208
 H       -10.4203675598       -5.8648252903       -3.5898651356
 H        -8.6892786092       -5.5970782702       -0.8560541573
 H        -9.2909576285       -7.0411883080       -0.0233496022
 H        -7.4752069736       -6.7632946101        1.4485084380
 H        -8.7276654327       -5.6320619723        2.0691285018
 H        -5.4260637543       -1.7265822704        0.4037789251
 H        -5.1748388016       -1.1465124288        2.0358621366
 H        -6.7080633052        0.5774399894        1.1984730175
 H        -7.4127821141       -0.5902372458        2.3425030713
 H        -9.5676902750        2.8300856440        0.9715719910
 H       -10.8990689698        2.0999142621        1.7661826318
 H       -12.2345093711        3.3320054234        0.6117098575
 H       -12.1798306773        1.9581890901       -0.3245056876
 H       -10.1305361979        6.4627270227       -1.3846717026
 H       -10.0245712053        5.9144987674        0.0829935800
 H        -9.9899073451        8.2192477020        0.1191480040
 H       -11.5861968300        8.1383163670        0.8375021041
 H       -11.7795950009       12.8280307855       -0.1411195991
 H       -11.2643810417       13.2857898182       -1.7515234982
 H        -8.8604598596       13.3717405328       -0.9584363541
 H        -9.2222925496       12.7497142098        0.5604726157
 H        -9.2660864733       17.0137264804       -1.3386199368
 H        -7.7111126023       16.3260219554       -2.0162586372
 H        -7.7449269862       17.8144442054       -1.2912889120
 H       -10.1367215230       18.0631191782        1.0859962980
 H       -11.5939076438       17.0709767365        0.9953237790
 H       -10.7366258409       17.6528287129       -0.4107025638
 H        -9.0471525827       16.3489506611        2.9399936149
 H        -8.8980833544       14.7394178803        2.4279142635
 H       -10.5071218839       15.4114230249        2.5854129457
 H       -12.4130180125        9.8328654411       -3.2078901678
 H       -12.4376219276       11.6702934988       -2.6261845183
 H       -13.8142466470       10.6551619427       -2.5973985718
 H       -13.2146399625       11.3791131875        0.0683639298
 H       -12.4890998641       10.2170175994        0.8805979196
 H       -14.0088292705        9.8509733433       -0.1283916068
 H       -10.5692650048        4.7481483994       -3.5063003094
 H       -11.5656205913        6.1231179443       -3.2943471027
 H       -12.2999693391        4.7393327100       -3.8769344795
 H       -13.9512663723        5.3935043315       -2.6599668480
 H       -14.1859299312        4.3208083832       -1.1282837733
 H       -13.6904777932        3.6420912877       -2.8500145724
 H        -8.2870205920        2.3908984807       -1.2924720024
 H        -6.7783951012        1.6055123917       -1.0406120288
 H        -7.8064913341        2.4094371097        0.2990196564
 H        -8.2381328955        0.4407680919       -2.6387672295
 H        -9.9147325175        0.6170863982       -2.2508637972
 H        -9.2598233809       -0.9440310573       -1.9646797694
 H        -5.3283766346       -4.5055189572        3.9493732472
 H        -5.9221369487       -5.9674832443        3.3062443641
 H        -6.9480282558       -4.4895172538        3.8443712511
 H        -4.2859707260       -5.4684426299        1.8665352400
 H        -3.8841775976       -3.6610155309        1.8096290536
 H        -4.6384072803       -4.5999289719        0.4878906523
 H       -12.7469415128       -3.6197919876       -0.4431485504
 H       -12.7128274769       -4.8089467672        0.7450225849
 H       -13.5976475124       -5.2431898657       -0.6225897191
 H       -10.8313086901       -7.3587361354       -1.4329868237
 H       -12.3855470242       -6.7678917416       -2.1280090545
 H       -12.2717346264       -7.0811615923       -0.5615312256
 Na      -10.6132669087       -2.4401857683        0.3004912572
