117

 C       -10.9398360542       -4.7538048308       -3.5062437159
 C       -11.1984268718       -4.3607220596       -2.1013897264
 O       -11.1934903310       -3.1366150290       -1.9223003663
 C       -11.5949137915       -5.3192916928       -0.9163122761
 C       -10.2575890242       -5.1406992736        0.1900291659
 O       -10.5244664924       -4.4300320907        1.2019525795
 C        -8.9797052360       -6.0142949013        0.2258668935
 C        -8.0873122754       -5.6361412775        1.4036043575
 C        -7.1257960510       -4.5759773176        1.0096480068
 O        -7.2329671886       -3.9582606340       -0.0494337569
 C        -6.0613307072       -4.1753914497        2.0712758704
 C        -6.4653651484       -2.6385189893        2.4312720818
 O        -7.2975664177       -2.4995627306        3.2910722549
 C        -5.9367257478       -1.4610025048        1.6950427234
 C        -6.9949823240       -0.3251989542        1.3943801670
 C        -8.0002663470       -0.6228220438        0.0505543788
 O        -8.4114967350       -1.7568319452       -0.0069333541
 C        -8.6919831952        0.6250551768       -0.5644951820
 C        -9.9536835218        0.7728141920        0.4852498682
 O       -10.3516732032       -0.1532114212        1.2307820283
 C       -10.5443126634        2.1342414594        0.8424198858
 C       -11.6011408433        2.7099278805       -0.1147191759
 C       -11.1675518611        3.4519201660       -1.4229664193
 O       -10.0528565274        3.3146198036       -1.8753108860
 C       -12.1396490052        4.6308211050       -1.9031267493
 C       -11.9043898310        5.7195011532       -0.6650226487
 O       -12.7220846185        5.6768796507        0.2444025072
 C       -10.5581746380        6.4858428459       -0.5140770875
 C       -10.8041154536        8.0257655125       -0.2456871918
 C       -11.6021645922        8.6564543260       -1.3642392606
 O       -11.9718760295        8.0089235507       -2.3943464963
 C       -12.0646248305       10.2309140413       -1.3080559160
 C       -10.8015106232       11.0281883367       -1.0377685318
 O        -9.6728171437       10.6543052049       -1.3666326963
 C       -10.9595189509       12.5455140142       -0.7993000419
 C        -9.7332516666       13.3558839634       -0.2460313313
 C       -10.1252916025       14.8876197261       -0.3093245163
 O       -10.8492255319       15.1847586616       -1.2433586904
 C        -9.6001675828       15.9903867939        0.7665117991
 C        -8.1871762980       16.1990824636        0.1405680071
 O        -7.2029346125       15.5135114991        0.5051274474
 C        -8.1605696638       16.8669872363       -1.3279663783
 C       -10.5904967155       17.1574401797        0.6985183161
 C        -9.4351904259       15.5909214497        2.2705313738
 C       -12.8970122626       10.5459567181       -2.6048562740
 C       -12.8564743115       10.4995489525        0.1262079719
 C       -11.5652546752        5.0734874736       -3.3217788909
 C       -13.6668508968        4.3067674578       -1.9374806890
 C        -7.9125320474        1.8945566712       -0.5810102494
 C        -9.1189744129        0.1755325950       -1.9782745211
 C        -6.1838733686       -4.9465430206        3.4188581783
 C        -4.6885252864       -4.4501224367        1.4132937364
 C       -12.8716087271       -4.7625469753       -0.2111126795
 C       -11.9380625525       -6.6852228333       -1.5834931367
 H       -10.6142903694       -3.7562851901       -3.8041646995
 H       -11.7482653682       -5.3338885149       -4.1553544179
 H       -10.0031290800       -5.4521601369       -3.3273205929
 H        -8.3585055081       -5.7033074111       -0.6402586307
 H        -9.2645818885       -7.1402410437        0.2363966348
 H        -7.5850879993       -6.5759636495        1.7602406335
 H        -8.6431333729       -5.3258210460        2.2153800062
 H        -5.6733988993       -1.7795068904        0.6651368882
 H        -4.9921053211       -1.1417894139        2.1723125732
 H        -6.4571859506        0.5263824287        1.2241141893
 H        -7.7056189386       -0.1918487225        2.1355388905
 H        -9.8216597537        2.9584526868        0.9147530713
 H       -10.9644140923        2.1093887703        1.8338882088
 H       -12.0838486839        3.4866148685        0.6552469704
 H       -12.3786313096        1.9905593124       -0.1750360707
 H        -9.7234777179        6.0920893679       -1.1016330792
 H       -10.2017864120        5.9359202168        0.4576710026
 H        -9.7652621271        8.4217707668       -0.2009287965
 H       -11.2748049139        8.1862166502        0.7412151257
 H       -11.7498281040       12.7411261207       -0.1003743539
 H       -11.3476720020       12.9884290018       -1.7229022159
 H        -8.7844936543       13.1402447448       -0.7980722633
 H        -9.5048653569       12.9526196937        0.7386288319
 H        -9.2182255877       17.0006813006       -1.6635003841
 H        -7.5048931108       16.3854353648       -2.0286794797
 H        -7.7399821208       17.9150078297       -1.3525201619
 H       -10.1070789503       18.1575213042        0.7679237726
 H       -11.2918592145       17.1111494454        1.6059040677
 H       -11.1079825783       17.1776470380       -0.1810947088
 H        -8.9241299515       16.2937028848        2.9521549087
 H        -8.8742494605       14.6649621538        2.4535042660
 H       -10.5005327388       15.3863007006        2.6574557803
 H       -12.4284465026        9.9650797037       -3.3643938395
 H       -12.9640936143       11.6528612673       -2.7883975046
 H       -13.8824857242       10.0831815404       -2.6538321993
 H       -12.5989633464       11.5568870956        0.4881362266
 H       -12.3534066673        9.8443753226        0.9038704415
 H       -13.9359780632       10.4520330803       -0.0017794594
 H       -10.4840847786        4.9659273681       -3.3020694737
 H       -11.8473983860        6.1108122329       -3.4028172663
 H       -12.0022686779        4.4689186287       -4.0728566231
 H       -14.0679681727        5.1630907980       -2.5871063535
 H       -14.1161549464        4.2985212825       -0.9180331216
 H       -13.8063945749        3.3966498233       -2.5334412983
 H        -8.5437798918        2.6577458666       -0.8857051656
 H        -7.2654790013        1.8199018532       -1.4414863073
 H        -7.5184365064        2.1262920785        0.3414103110
 H        -9.0210621551        1.0859667140       -2.5679750795
 H       -10.1916117956       -0.2440101277       -2.0718317401
 H        -8.4500920054       -0.6395298820       -2.2284024402
 H        -5.5436578018       -4.5171908490        4.1597627549
 H        -6.0697681112       -6.0004350797        3.3645687094
 H        -7.1491334814       -4.6067044375        3.7397863007
 H        -4.4514257164       -5.4593385823        1.4125527338
 H        -3.9820871744       -3.7813453882        1.8259577179
 H        -4.8528164846       -4.2233179371        0.2925523516
 H       -13.0381193831       -3.6846612722       -0.4415248839
 H       -12.8420811985       -4.7970228625        0.8651002131
 H       -13.6828694749       -5.4765843580       -0.4966182492
 H       -11.0210975198       -7.2175900496       -2.0117838574
 H       -12.6972041340       -6.3723839221       -2.3063852738
 H       -12.4905783082       -7.4422934985       -0.9409634306
 Na      -10.6755708518       -2.3925975573        0.2055181336
