117

 C       -10.8241295965       -4.8198611670       -3.4927734067
 C       -11.1967323648       -4.2636308565       -2.0863032511
 O       -11.2314358215       -3.0706959722       -1.7944094518
 C       -11.7045970648       -5.3005499932       -0.9444090716
 C       -10.4997178421       -5.2553688646        0.1879432238
 O       -10.5502034941       -4.3472324399        0.9821460456
 C        -9.1870786866       -6.1158424508        0.2442769170
 C        -8.2063109091       -5.6250864078        1.4576078778
 C        -7.1899649225       -4.4585904966        1.1832217454
 O        -7.0846612393       -4.1100256992        0.0111454322
 C        -6.0780621175       -4.0673737938        2.2114318039
 C        -6.5365721187       -2.6462878031        2.5624575472
 O        -7.4073286514       -2.5501450783        3.4191399009
 C        -5.9532183782       -1.4147643653        1.6839153310
 C        -6.8929551061       -0.3445089646        1.2624862979
 C        -8.0318383573       -0.5000630140        0.2831579331
 O        -8.4769726815       -1.6062904777        0.0682614506
 C        -8.7294633474        0.6908748557       -0.3776626208
 C        -9.9660620741        0.8052766771        0.5433151218
 O       -10.3811322398       -0.1900334928        1.1304104725
 C       -10.5999395265        2.2571078412        0.8095653038
 C       -11.7431018381        2.7122138532       -0.1617490317
 C       -11.2331940493        3.4748345890       -1.4144002994
 O       -10.0659818869        3.2831404091       -1.8483720980
 C       -12.0472503754        4.6419626462       -1.8936863954
 C       -11.7346137919        5.6743539270       -0.6317497413
 O       -12.5146749981        5.6821195274        0.2612178730
 C       -10.4664407438        6.5235036478       -0.5972946788
 C       -10.7276822495        8.0621947431       -0.4579761726
 C       -11.6316071925        8.6550105098       -1.4614556399
 O       -11.9577208683        8.1090652504       -2.5164471184
 C       -12.0043414360       10.1304696706       -1.3215371193
 C       -10.6162954419       11.1390444401       -1.2841886366
 O        -9.5865635288       10.5626909751       -1.2774560925
 C       -10.9406079354       12.5711732321       -0.8040405448
 C        -9.8439185269       13.3707295407       -0.1315640452
 C       -10.2328940326       14.7797563033       -0.3260513098
 O       -10.7614513497       15.2426290349       -1.2920891331
 C        -9.6205732391       15.7904795018        0.6262909090
 C        -8.2013257048       16.0467803135       -0.0504512493
 O        -7.1982449641       15.5367382422        0.3246922605
 C        -8.0962776575       16.9515189930       -1.3756982157
 C       -10.3943144194       17.1725154095        0.7099745489
 C        -9.3673750348       15.4268574348        2.1013812211
 C       -12.9117095361       10.4956690745       -2.4209007079
 C       -12.8725839810       10.2650874083        0.0841247814
 C       -11.6509099224        5.1001721377       -3.2763679465
 C       -13.5191287867        4.1183049786       -1.8051125572
 C        -7.8576696717        1.9544031288       -0.5072225136
 C        -9.3061760757        0.1621827726       -1.9200100505
 C        -6.1903828603       -5.0550793936        3.4714976163
 C        -4.7424484483       -4.2499544134        1.3478717391
 C       -12.9341769867       -4.8421340803       -0.1190248103
 C       -11.9184071183       -6.6816589082       -1.5657942044
 H       -10.7640148629       -4.0023142120       -4.1168054171
 H       -11.5232452757       -5.5357708840       -3.7947457207
 H        -9.8998577973       -5.3393853623       -3.2826756526
 H        -8.5426370564       -5.9423079397       -0.7064973860
 H        -9.4099222883       -7.2291609752        0.4352218026
 H        -7.7187999601       -6.4476101696        1.7265181181
 H        -8.8245914123       -5.3754527676        2.3566203861
 H        -5.3383161092       -1.6915425572        0.8143026626
 H        -5.1987378791       -0.9360375718        2.4078479500
 H        -6.2872906668        0.5085329576        0.9438378370
 H        -7.4956864672       -0.0452551142        2.1496192693
 H        -9.9537477971        3.1342070213        0.7612940640
 H       -11.0024213892        2.3793242189        1.9046618385
 H       -12.4763151349        3.1329415117        0.4796161307
 H       -12.1778878801        1.6913930015       -0.5655091246
 H        -9.7849029603        6.0990315215       -1.3896913655
 H        -9.8734434728        6.0670120037        0.2330794763
 H        -9.6928540465        8.5232775058       -0.6347105019
 H       -10.9964388474        8.3012018676        0.5642199247
 H       -11.9166894167       12.5569151300       -0.2504308835
 H       -11.1752815204       13.1726098104       -1.6988265828
 H        -8.9192242528       13.0750222679       -0.6950487364
 H        -9.6465038918       13.1465912148        0.9206968879
 H        -8.9177333787       17.1737220290       -2.0140807505
 H        -7.1832041192       16.7053462029       -1.9171231697
 H        -7.7410968261       17.9253750347       -0.9346915552
 H        -9.9167333995       18.1516740434        0.5917241813
 H       -10.8700617467       17.2378022729        1.7612999999
 H       -11.2615004230       17.0775528636       -0.0291081988
 H        -8.8705678818       16.1835118865        2.6556256110
 H        -8.6074666259       14.5353129005        2.1734344301
 H       -10.2890378751       15.1057445850        2.6522551877
 H       -12.4377659992       10.4003623380       -3.3809906442
 H       -13.3306328720       11.5153120717       -2.2326499605
 H       -13.7085813721        9.7420536749       -2.4821175098
 H       -12.7463611277       11.2469508462        0.6733064141
 H       -12.6622064158        9.3685061028        0.7873482943
 H       -13.9032225862       10.2940984347       -0.3622932728
 H       -10.6102226104        5.4336356398       -3.1653869359
 H       -12.3355087862        6.0498092161       -3.4984893221
 H       -11.6537176172        4.2799913082       -4.0005873928
 H       -14.1032828080        4.8187900434       -2.3407918256
 H       -13.7895630617        4.1254251561       -0.7651846731
 H       -13.6082612944        3.1337199485       -2.2808531893
 H        -8.2829852850        2.9916680961       -0.7363518431
 H        -7.3471130393        1.8161133502       -1.4358700385
 H        -7.2682152547        1.9965350357        0.3778242606
 H       -10.1126060041        0.9715528970       -1.9708410880
 H        -9.7287382439       -0.9235226552       -2.0527060306
 H        -8.4711754950        0.2762973161       -2.6075253200
 H        -5.5689862149       -4.8272079775        4.3765556916
 H        -6.0055569945       -6.0084495724        3.0288638045
 H        -7.2380360167       -5.0168773620        3.7801311966
 H        -4.7282030488       -5.2326628360        0.9253174790
 H        -3.9191838181       -4.0016914380        2.0618702133
 H        -4.6911473731       -3.5812637852        0.4762743681
 H       -13.1037737513       -3.7470423830       -0.2274679341
 H       -12.9068406092       -4.9975867448        1.0036839114
 H       -13.7359863396       -5.4999760194       -0.4876276063
 H       -11.0345992389       -6.9675105722       -2.2030928339
 H       -12.9272584403       -6.5400497727       -2.1333128445
 H       -12.0675363777       -7.5987411933       -0.8771825249
 Na      -10.6738902171       -2.2219925213        0.1453135206
