117

 C       -10.7035187839       -4.7839817734       -3.4067811941
 C       -11.3198358330       -4.3154642013       -2.0212046774
 O       -11.3868017770       -3.1151059654       -1.7380618676
 C       -11.6750260904       -5.3201299815       -0.9002353372
 C       -10.5353941132       -5.0122350021        0.2101102461
 O       -10.5527140201       -3.9735677056        0.8890213649
 C        -9.4275656509       -6.0773403682        0.3310368179
 C        -8.3640732726       -5.6264369415        1.4180824871
 C        -7.2943038076       -4.7313348548        1.0037246673
 O        -7.2416214930       -4.4771029722       -0.1860333259
 C        -6.2466889378       -4.1418969379        2.2110175539
 C        -6.8341476989       -2.5529543276        2.5321065131
 O        -7.4954948977       -2.3740512318        3.5253003780
 C        -6.0567189882       -1.5648275486        1.7112447188
 C        -6.7760372049       -0.2487153951        1.4086259396
 C        -7.9473178732       -0.4925971981        0.4566677995
 O        -8.2419189197       -1.6633282834        0.3309032784
 C        -8.7979583709        0.6198673238       -0.1058204832
 C       -10.0989604170        1.0856495151        0.8263022304
 O       -10.8563075634        0.1061220771        0.9147561925
 C       -10.6213438517        2.4488473390        1.0399093846
 C       -11.6592056158        2.5666864577       -0.2411597883
 C       -11.1692621391        3.3389294505       -1.4573378944
 O       -10.0821086623        3.2164462658       -1.8989037370
 C       -12.0556423750        4.5596070111       -1.8078591325
 C       -11.6522612113        5.6671659216       -0.6554177504
 O       -12.1814477349        5.8908880336        0.4356076029
 C       -10.3279707536        6.5202828781       -0.9758279332
 C       -10.4623542772        7.9496532531       -0.7856097578
 C       -11.4706252939        8.6165525177       -1.6794415571
 O       -11.8597631502        7.9954686782       -2.6918975503
 C       -12.0025918276        9.9974477997       -1.2432662506
 C       -10.8310894528       11.0163953307       -1.1755300013
 O        -9.6687909170       10.5854607424       -1.1038708082
 C       -11.0614092468       12.5923749318       -1.1713076885
 C       -10.1683304680       13.3094029190       -0.1004986940
 C       -10.1268115637       14.8469741717       -0.5229431121
 O       -10.8866371203       15.2600041103       -1.4396102690
 C        -9.3658530691       15.7823814017        0.5033725267
 C        -7.9818736468       16.1131989883       -0.2082210560
 O        -6.9875188105       15.4231630260       -0.0026821208
 C        -8.0555144612       17.1052075317       -1.3353924187
 C       -10.1668138759       17.0953543773        0.6549483240
 C        -9.1076025036       15.1302400884        1.8237233878
 C       -12.8125552526       10.7827355044       -2.3055166584
 C       -12.8063982878        9.7489121839        0.1006932973
 C       -11.7989733731        5.0542020854       -3.2910775028
 C       -13.6087254521        4.2468060739       -1.6921229497
 C        -7.7514628707        1.7962795762       -0.3347834280
 C        -9.4313696188        0.2808728977       -1.5360877387
 C        -6.1950490575       -5.0585829705        3.5084340840
 C        -4.8109479044       -4.0985204747        1.6934089740
 C       -13.0899081673       -4.9305037171       -0.3222853727
 C       -11.6408207299       -6.8612252957       -1.2777244079
 H       -10.6301517631       -4.0323442463       -4.1618543782
 H       -11.5125198054       -5.4732125160       -3.8603695838
 H        -9.7475235550       -5.3587398091       -3.1258299072
 H        -8.9064221961       -6.1724130325       -0.5458220687
 H        -9.8684221861       -6.9545857804        0.6889747417
 H        -7.9691119249       -6.6566367804        1.9239896627
 H        -8.8875162008       -5.1588264251        2.2580927742
 H        -5.6913639601       -1.9890679719        0.7668242119
 H        -5.1721163357       -1.3950685930        2.2985564254
 H        -6.0792690716        0.5463210169        0.9868039403
 H        -7.2470205495        0.1332924124        2.3658667859
 H        -9.8424140719        3.2454452278        0.9517573947
 H       -11.1507886673        2.6684113945        1.8999862873
 H       -12.5985793728        2.8586494596        0.3145141460
 H       -11.8568048241        1.6331862439       -0.5547965080
 H       -10.0488683710        6.2331722398       -1.9266664617
 H        -9.5493367433        6.0823980867       -0.3842329939
 H        -9.5362873956        8.3637453963       -1.0724155843
 H       -10.5247283384        8.1092747736        0.3076018271
 H       -12.1247780851       12.8321328349       -0.9571705207
 H       -10.8459850102       13.0163747054       -2.2086210649
 H        -9.1765068386       12.8280779478       -0.2073500828
 H       -10.5790113000       13.1597518739        0.9429384164
 H        -8.9277246332       16.7637394894       -1.9760707164
 H        -7.1461299882       16.8635440720       -1.8797913111
 H        -8.1068716713       18.1687469299       -1.2050850299
 H        -9.4585860033       17.9783584148        0.6430382842
 H       -10.6107253427       17.3703755823        1.6046758502
 H       -10.8872360348       17.1601263841       -0.1049292625
 H        -8.7481959879       15.8403333903        2.5939161776
 H        -8.3887868963       14.4115077469        1.7101455310
 H        -9.9357437621       14.6035246612        2.2612133246
 H       -12.2479424988       11.4367029792       -3.0286345358
 H       -13.5278715652       11.4800590995       -1.8033181944
 H       -13.3752017672       10.0128791006       -2.8816480236
 H       -12.8964526142       10.6318087682        0.7110358546
 H       -12.4384419308        8.8479527665        0.5129066203
 H       -13.7884990013        9.5491061318       -0.2218118238
 H       -10.8756090663        5.6458038603       -3.2593366431
 H       -12.6569929273        5.5901385268       -3.5961466681
 H       -11.4778729763        4.1867706239       -3.8897012921
 H       -14.1297940603        5.0121004619       -2.2879865521
 H       -13.8871143457        4.3891486298       -0.6674824335
 H       -13.8535989445        3.2803006293       -1.9990494156
 H        -8.1325897401        2.3843379909       -1.1527671043
 H        -6.7660726456        1.6278992610       -0.8743367597
 H        -7.7310351974        2.3822413218        0.6325599887
 H        -9.9528253408       -0.6101843853       -1.5732940261
 H        -8.4717073489        0.2301584734       -2.0180264627
 H        -9.8013862089        1.1342239570       -2.0540562672
 H        -5.5064869788       -4.5567491675        4.1760899200
 H        -5.7972618308       -6.0401937393        3.1199195639
 H        -7.1726541190       -5.2242977310        4.0229716819
 H        -4.7941852390       -5.1389176015        1.2941206452
 H        -4.0526251991       -3.9243869381        2.4412025219
 H        -4.5490662625       -3.4360355991        0.8022582791
 H       -12.9991057547       -4.0109701180        0.2319272893
 H       -13.4296908219       -5.6432338142        0.3627823478
 H       -13.8008788558       -4.8623523652       -1.1470204473
 H       -10.6768565612       -7.1789509390       -1.6005051642
 H       -12.3441820870       -7.0316911295       -1.9926037500
 H       -11.7774909452       -7.4677136979       -0.4432299933
 Na      -10.6370481993       -1.8868220074        0.1487837256
