117

 C       -10.8084288971       -4.9017738334       -3.2675284208
 C       -11.2070404166       -4.2022871428       -1.9548922337
 O       -11.4529483922       -3.0409454894       -1.8897959966
 C       -11.5311661360       -5.3143074839       -0.7727049334
 C       -10.5515490853       -4.9435462490        0.3847033171
 O       -10.5793012894       -3.9058447381        0.9546752316
 C        -9.5101246187       -6.0494030383        0.5680949429
 C        -8.5144983847       -5.6000908420        1.6609215333
 C        -7.2863323587       -4.8581931331        1.1637737848
 O        -7.0955555308       -4.6593817577       -0.0115576915
 C        -6.2827390134       -4.2091098098        2.2763681708
 C        -6.7479355623       -2.7523484975        2.2760631925
 O        -7.5315641290       -2.4073950717        3.1615238668
 C        -5.9858429584       -1.5344022221        1.6531255047
 C        -6.8827093457       -0.2965324368        1.8131368636
 C        -8.0607211271       -0.5567438655        0.8154775330
 O        -8.5267921688       -1.6925801478        0.6390802744
 C        -8.7805949875        0.6725773741       -0.0270524663
 C       -10.1444667184        0.9999413058        0.7359135372
 O       -10.8639666000        0.1197086156        1.1224282957
 C       -10.5627533511        2.5482628401        0.8314609877
 C       -11.7542857643        3.0131486633       -0.0153882490
 C       -11.3654541643        3.5892463255       -1.3365297671
 O       -10.2799431461        3.2283113096       -1.8824253272
 C       -12.1541714754        4.7350967913       -1.8841725265
 C       -11.4797488222        5.8268052654       -0.9505140211
 O       -11.9827910624        5.8805912485        0.1340476442
 C       -10.1187569895        6.4368846172       -1.2219378286
 C       -10.1744468141        8.0126925747       -1.1120474730
 C       -11.3239908662        8.5774271644       -1.9309205611
 O       -11.8472375791        8.0643120425       -2.8409102471
 C       -11.9214647328        9.9538682719       -1.3356405805
 C       -10.7975142438       11.0171525224       -1.1175423519
 O        -9.7558410302       10.7034267619       -0.6305080514
 C       -11.1690532235       12.4703578583       -1.1963863037
 C       -10.3516292863       13.2904204873       -0.1794087425
 C       -10.2192330213       14.8281280723       -0.5432981528
 O       -10.7166796589       15.4070945173       -1.4528645804
 C        -9.1971931989       15.7559215874        0.3931931707
 C        -7.9103672107       16.0749091423       -0.3817638215
 O        -6.9426932283       15.4037635084       -0.3302905349
 C        -7.8895792993       17.1121718114       -1.5041131853
 C        -9.9717662496       17.0367385943        0.6559375774
 C        -8.7754200143       14.9834603933        1.6420452921
 C       -13.0856565690       10.2428869304       -2.3730942930
 C       -12.7132468054        9.8566940057       -0.0476321629
 C       -12.0362618295        4.8394755305       -3.4504718793
 C       -13.6535638997        4.6464843580       -1.4544595359
 C        -7.9635626123        1.9049197062        0.0251489440
 C        -9.0360744351        0.1266199055       -1.4148846171
 C        -6.6136924376       -4.8489778861        3.6507535326
 C        -4.9045425127       -4.4503448048        1.6228051453
 C       -13.0598686004       -4.9885145517       -0.4436562224
 C       -11.4867641771       -6.7584371454       -1.2791409898
 H       -10.6869725416       -4.0974647281       -4.1064141375
 H       -11.6715235593       -5.4269701510       -3.6743666851
 H        -9.9794467696       -5.5006817184       -3.0520397698
 H        -8.9488258329       -6.3672558440       -0.3748214440
 H       -10.0384101711       -6.8703216404        1.1099382593
 H        -8.3579157634       -6.3966439436        2.2761528077
 H        -9.1112427636       -4.9832492766        2.3209748038
 H        -5.5222677252       -1.6332363428        0.6868171556
 H        -5.0871455288       -1.3020728871        2.2926144638
 H        -6.4373747805        0.6334960182        1.7537458920
 H        -7.2811451786       -0.4877808287        2.7553423699
 H        -9.7931532711        3.2214409116        0.5420048369
 H       -10.8256350870        2.7513398907        1.9219670285
 H       -12.1187296876        3.7961456256        0.5960980583
 H       -12.5685794461        2.1559974678        0.1309384358
 H        -9.8265677782        5.9632825447       -2.2432273116
 H        -9.5540049022        5.8390648473       -0.4523765483
 H        -9.1484447679        8.4316644493       -1.3502046214
 H       -10.2481751800        8.2499890933       -0.0478770553
 H       -12.2528142184       12.6635347132       -1.0358593637
 H       -10.9100712980       12.7749563241       -2.1701144500
 H        -9.3382105496       12.8444232696       -0.0974807968
 H       -10.9570816585       13.2897710561        0.7286649164
 H        -8.8117565123       16.9655351446       -2.0487965804
 H        -6.9669282142       17.0909616945       -2.1524096568
 H        -8.0153188783       18.1127929556       -1.0097163729
 H        -9.5973397273       17.3291114310        1.5924173161
 H       -10.9783728480       16.9060800493        0.8924094918
 H       -10.0868446683       17.7464984174       -0.1704035346
 H        -8.0629834700       15.6370710111        2.1375453254
 H        -8.3245679093       13.9373746035        1.5479879734
 H        -9.5201647184       14.8126839213        2.4257623771
 H       -12.5714262486       10.7402956415       -3.2094651598
 H       -13.6457099481       11.1152490791       -2.1179367314
 H       -13.7225203242        9.3681386737       -2.5453195629
 H       -13.2827542784       10.7699273656       -0.1280321955
 H       -12.0246229628        9.6727492120        0.8158990379
 H       -13.4190308814        8.9366795266        0.0643960474
 H       -11.0385355858        4.5429973032       -3.6616666374
 H       -12.4813342336        5.7605545734       -3.6910098545
 H       -12.5850650655        4.0032909900       -3.8687748761
 H       -14.2507243095        5.4809665934       -1.8131381556
 H       -13.6986423244        4.5964380736       -0.3332128184
 H       -14.0110843853        3.6110129748       -1.8258615886
 H        -8.2683064375        2.5437051189       -0.7139306514
 H        -7.1075233462        1.5283982243       -0.4332198650
 H        -7.6473637155        2.2592719188        0.9369050847
 H        -8.1243845173       -0.4641502246       -1.6514231586
 H        -9.4203373621        0.8177592189       -2.1215897705
 H        -9.8512231842       -0.6694713828       -1.3182898069
 H        -5.7721456215       -4.6563893597        4.2850533193
 H        -6.7376624089       -5.8629880008        3.4110396655
 H        -7.5338157177       -4.5334712585        4.0595321787
 H        -4.2594349256       -5.1548808415        2.1759454456
 H        -4.3214156777       -3.4854185869        1.5479568168
 H        -5.0354044006       -4.6543795562        0.6360468438
 H       -13.0323393975       -4.2966862654        0.3983152717
 H       -13.5628566563       -5.9177734332       -0.0572986799
 H       -13.5877279488       -4.4822123245       -1.2391909666
 H       -10.4839194087       -7.0228593432       -1.6673363399
 H       -12.1106357139       -6.9634877346       -2.1994600507
 H       -11.5723805908       -7.3958576110       -0.3826862029
 Na      -10.6472534785       -1.8648031177        0.0146451488
