117

 C        -5.0197931269       -1.1903156660        9.2382038370
 C        -6.5126513938       -1.0145973417        9.1636275947
 O        -7.1069098518       -0.2351984923        9.8929186810
 C        -7.2509995463       -1.7860382382        7.9082032755
 C        -6.6743535345       -0.8936350667        6.6398888115
 O        -6.0503979267       -1.3495302549        5.7687147139
 C        -6.9635103269        0.7046141003        6.6118170543
 C        -6.0243107194        1.4007087162        5.5214185836
 C        -6.7019851602        2.6106182269        4.9544073421
 O        -7.9020260039        2.7478572782        4.9096710681
 C        -5.7135049724        3.7734914650        4.3727747505
 C        -5.4959652766        3.6811003740        2.8178890126
 O        -4.6352680268        2.9686941405        2.3074101414
 C        -6.4748111222        4.5398991722        1.8543880998
 C        -6.2678790937        4.2828334669        0.3494648277
 C        -7.5649802024        3.9028923918       -0.2847918236
 O        -8.0538460246        4.8082322620       -1.0029445028
 C        -8.3118441785        2.5831866793       -0.1444471248
 C        -9.7225710132        2.9630137262        0.6257880871
 O        -9.6142845941        3.7731296759        1.5145201841
 C       -10.9231796686        2.1059690972        0.4845468454
 C       -12.1814697852        2.8964546931        0.8339103141
 C       -12.3733510968        4.1397251422       -0.1035075109
 O       -11.4255952107        4.8265612543       -0.3498154497
 C       -13.8146999016        4.6319718467       -0.7984523662
 C       -13.6410407364        4.1936441443       -2.2663902622
 O       -12.5666773085        3.9373390827       -2.8220504340
 C       -14.8809095476        4.3432049549       -3.1555828092
 C       -14.6578162766        5.1377711197       -4.4395703896
 C       -15.2403361423        6.4552749122       -4.4815541165
 O       -15.9466155616        7.0257806563       -3.6246309842
 C       -15.0272548948        7.2939767409       -5.8448311854
 C       -13.6243407783        6.8709341581       -6.3410839784
 O       -13.4926517726        6.1569883823       -7.3231069998
 C       -12.2361384501        7.3659577062       -5.7027746265
 C       -10.9679551918        6.6154895295       -6.1504565413
 C       -10.1849917640        6.0264243317       -4.9978404246
 O       -10.7179915253        6.1543494016       -3.8515685215
 C        -8.8395654846        5.3228471654       -5.3604614695
 C        -9.1298615184        3.7499383236       -5.0629370726
 O        -9.7842771224        3.5386269452       -4.0511808713
 C        -8.4793426138        2.6965771708       -5.9663842091
 C        -8.3852683747        5.6287660815       -6.8016498528
 C        -7.8042501248        5.8563285043       -4.3766535329
 C       -16.1106216701        6.8149676075       -6.8017857351
 C       -15.1775776579        8.7861775762       -5.5201958265
 C       -15.0077435923        3.8655358918       -0.1000159227
 C       -13.9086261581        6.2208817350       -0.7829052122
 C        -8.3104198940        1.9052091826       -1.5297490393
 C        -7.6547971994        1.5091993823        0.8562337001
 C        -6.4051611746        5.0875540114        4.7783926082
 C        -4.3471627625        3.7755142437        4.9844601904
 C        -6.7286592831       -3.3048744309        7.7935738979
 C        -8.8652044649       -1.7810592990        7.7428989963
 H        -4.6186367866       -0.3733864445        9.8682764692
 H        -4.5479788754       -1.2209317850        8.2311655563
 H        -4.7355488133       -2.1672181666        9.6650458005
 H        -6.6841704058        1.1453766211        7.5521188982
 H        -7.9705756284        0.9962994150        6.4475878764
 H        -5.8724779623        0.6390678072        4.7528981568
 H        -5.1075583029        1.6589483458        6.1000328195
 H        -6.2124948842        5.5823898637        2.0587567302
 H        -7.4527333620        4.3786646713        2.2871939017
 H        -5.4618680545        3.5208051035        0.2426759713
 H        -5.8667239297        5.2480659489       -0.0879743549
 H       -10.8947680048        1.2687780831        1.1663704542
 H       -10.9935343174        1.5341599814       -0.4809734341
 H       -12.2185217281        3.2412627703        1.8615928289
 H       -13.0610892618        2.1645358040        0.7301878875
 H       -15.6367836587        4.8947657034       -2.5615187759
 H       -15.1931548182        3.3813868813       -3.4217921392
 H       -14.9205959229        4.5238226031       -5.3714625143
 H       -13.5583235735        5.2492322398       -4.5068253955
 H       -12.3089780301        7.5015306019       -4.6188096447
 H       -12.2238076431        8.3447179259       -6.1576298499
 H       -10.1617443743        7.3021885344       -6.5518477590
 H       -11.3042157971        5.9262197928       -6.8804459743
 H        -7.5826049915        2.3388640821       -5.4248929016
 H        -8.1843073212        3.2290489643       -6.9163633780
 H        -9.2116658022        2.0029529635       -6.1865605080
 H        -8.2860094727        6.7554043913       -6.9665513714
 H        -9.1109655673        5.2084741962       -7.5750227026
 H        -7.4127493859        5.1445899924       -7.0086434295
 H        -8.2833665426        5.9473929014       -3.3237617275
 H        -7.6257422801        6.8522780325       -4.8398919652
 H        -6.9239551562        5.3672726518       -4.2073502260
 H       -16.0344479936        5.7120850441       -6.9556547226
 H       -15.9937328145        7.2693120627       -7.8036255419
 H       -17.0980793448        7.0438982786       -6.4033845653
 H       -15.2263274260        9.3878356881       -6.4500870851
 H       -14.4563588211        9.1848227685       -4.8763488035
 H       -16.0885751900        8.8832067458       -5.0293787317
 H       -15.2718786440        4.0779127125        0.9552080859
 H       -14.7618527859        2.7646700019       -0.1528453761
 H       -15.8910065629        4.0041230832       -0.7133250653
 H       -13.8338323095        6.5986657636        0.2564925179
 H       -14.8960803319        6.6133934526       -1.1647257254
 H       -13.0975519459        6.7254315592       -1.4080910005
 H        -8.8429057195        0.9719576865       -1.4572529496
 H        -7.1890687492        1.6898534402       -1.7940315452
 H        -8.7842076407        2.5990881407       -2.2106576812
 H        -7.8635614756        1.6939808705        1.9046252663
 H        -6.6241344989        1.4792891507        0.5454423536
 H        -8.0694981201        0.5309905288        0.5752697459
 H        -6.1529449850        5.1967066881        5.8465628725
 H        -7.4421095126        5.0520963499        4.5986888890
 H        -5.9288010077        6.0208304154        4.3262682195
 H        -4.4171020159        3.8238871471        6.1156370315
 H        -3.7259266129        4.6020860757        4.6697869031
 H        -3.7566272971        2.8100231889        4.8459488384
 H        -5.6425141950       -3.2428911977        7.8593516422
 H        -6.9388127296       -3.7093482424        6.7876811489
 H        -7.1238089308       -3.9616413447        8.5770769343
 H        -9.3840170928       -1.0006876195        8.3484189786
 H        -9.3816417077       -2.7125179653        7.8675798416
 H        -9.0023114184       -1.5546272197        6.6698471523
 Na      -10.1594843122        4.6489176399       -2.1237155046
