117

 C       -10.8404693524       -4.6879686649       -3.5073399442
 C       -11.1867430732       -4.2892934587       -2.1135186543
 O       -11.1265079220       -3.0620289061       -1.9563934762
 C       -11.6120594820       -5.3112251382       -0.8183376780
 C       -10.6269774433       -5.0332616899        0.3611028922
 O       -10.8339241947       -3.9929285209        1.0537108317
 C        -9.6016350807       -6.0837996478        0.8456806620
 C        -8.6214166699       -5.4830299606        1.9735043796
 C        -7.3734813376       -4.8843681056        1.4716290740
 O        -7.2059400115       -4.9913469660        0.2532906952
 C        -6.1724905131       -4.1679815832        2.4196902032
 C        -6.7637113646       -2.7920938091        2.4644463870
 O        -7.7847058060       -2.7302929050        3.1246852033
 C        -6.0202260032       -1.7089992651        1.8138052317
 C        -6.7590850768       -0.3407485402        1.7657237191
 C        -8.1335533091       -0.4975285395        0.8520097014
 O        -8.8977906483       -1.4259279145        0.9134119103
 C        -8.6937253298        0.7558431858        0.0859977923
 C       -10.1685082683        1.0880310391        0.7560379783
 O       -10.9829591366        0.1565148950        0.8612599041
 C       -10.6701128750        2.4385367819        1.1284207655
 C       -11.8718033562        3.1211274613        0.2888175419
 C       -11.5314261176        3.5148661994       -1.1517795581
 O       -10.6390880399        2.9502863944       -1.7125820381
 C       -12.2592952109        4.8301229234       -1.7480222022
 C       -11.3704817576        5.9046745186       -1.1765125663
 O       -11.7092743381        6.4408407634       -0.1184714819
 C       -10.0044004488        6.4605538087       -1.8383974055
 C        -9.9422386374        7.8959742777       -1.3570821071
 C       -11.1794846559        8.6899490632       -1.9862911785
 O       -11.7430618662        8.0877088274       -2.9639353195
 C       -12.0336406827        9.9596069837       -1.4782892185
 C       -11.0727775196       11.1187875733       -1.0059501619
 O       -10.0110651398       10.7917455198       -0.4666113560
 C       -11.1740911098       12.5737534012       -1.2263557800
 C       -10.3477285730       13.3730658752       -0.1800924409
 C       -10.1691899952       14.8691222755       -0.6014818368
 O       -10.5417070730       15.4181889238       -1.6101855647
 C        -9.1041601596       15.6599052810        0.2080997516
 C        -7.8653932853       15.9323804416       -0.7328942507
 O        -6.8351501566       15.2354975625       -0.6458791354
 C        -7.9389296251       17.1014757321       -1.6608614792
 C        -9.7818325976       16.9150328763        0.8613194285
 C        -8.5429042512       14.9511203708        1.4296870355
 C       -13.1037111792       10.2855194348       -2.5532781462
 C       -12.4996645352        9.5041207382       -0.0144999695
 C       -12.0603327697        4.8895919271       -3.2820719360
 C       -13.7683236700        4.9715022077       -1.5387030529
 C        -7.6242869687        1.9668185250        0.0234101945
 C        -8.7819918495        0.2865987583       -1.5022951664
 C        -6.2396266783       -4.8782872954        3.8797421890
 C        -4.8230970231       -4.6842584446        1.8203447955
 C       -12.9580896478       -4.8744334190       -0.2210101299
 C       -11.5927030900       -6.7646041604       -1.4189187508
 H       -10.9353562771       -3.7669218239       -4.0964113015
 H       -11.6020591552       -5.1942239661       -3.9907991568
 H        -9.8346501630       -5.0811416133       -3.5483487158
 H        -8.9812512780       -6.2911680876       -0.0026290709
 H       -10.1698106193       -6.9388810225        1.2633327468
 H        -8.4101027979       -6.2476983758        2.8061241152
 H        -9.3098334568       -4.7964062824        2.5824507628
 H        -5.8413371746       -1.9149692833        0.7248155462
 H        -4.9919871244       -1.5764952717        2.1360889153
 H        -6.0819163710        0.3495076349        1.1303049048
 H        -7.1401341538        0.2118017264        2.7459735941
 H        -9.8922626985        3.2558713055        1.1737220164
 H       -10.9970957814        2.1556455748        2.1277216870
 H       -12.3042406435        3.9674422743        0.9079352325
 H       -12.5527267807        2.3744988174        0.3295990100
 H        -9.9940361316        6.4715057672       -2.8806637503
 H        -9.2068925325        5.8700567910       -1.4293816612
 H        -8.9054310213        8.0807292234       -1.5176826971
 H       -10.0108910497        7.9947884145       -0.2595460826
 H       -12.2486792528       12.7945615088       -1.0677669591
 H       -10.7476357330       12.9397060443       -2.2432092331
 H        -9.3294407646       13.0113325369       -0.3222174552
 H       -10.8327658524       13.3006265419        0.7976843125
 H        -8.9451276376       17.1232544673       -2.1173398835
 H        -7.2569929878       16.7451721093       -2.3911408409
 H        -7.8062464721       18.0898355158       -1.2010053832
 H        -9.7624798066       16.8254503563        1.9685869620
 H       -10.8878781009       17.1423091180        0.5286910953
 H        -9.3527048313       17.8186171433        0.4118253661
 H        -7.9514307145       15.5716702953        2.0779356787
 H        -8.0781303991       13.9891941868        1.3455534023
 H        -9.3981601261       14.6700973765        2.0935736736
 H       -12.8688749640        9.9805428505       -3.5025235134
 H       -13.0218854822       11.3465659929       -2.8642060707
 H       -14.0484374957       10.0501136988       -2.0732509235
 H       -13.3625199353       10.1465679650        0.3071535925
 H       -11.5787111151        9.4864431374        0.5504257557
 H       -12.7152838716        8.5090017991        0.0995185787
 H       -11.4949833718        3.9799458644       -3.5877915330
 H       -11.8829900226        6.0146500139       -3.4797621838
 H       -13.0720874825        4.7080753028       -3.6802402528
 H       -14.0066029819        5.8834781097       -2.1157502302
 H       -14.1054494787        5.1322906486       -0.5501087570
 H       -14.2367239692        4.1484666094       -1.9588882270
 H        -8.1497811079        2.8590965001       -0.5233171410
 H        -6.5217109992        1.7057076094       -0.2689493821
 H        -7.4233776715        2.2034526026        1.1400280304
 H        -8.4964046643        1.2562576819       -2.0020386691
 H        -9.8619770636       -0.0951344415       -1.6940059341
 H        -8.0784498299       -0.4380123468       -1.8145213805
 H        -5.2754958771       -4.6501737101        4.3548270454
 H        -6.4694900758       -5.9613713371        3.8493737898
 H        -7.1861979102       -4.4807312116        4.2937716807
 H        -4.2621547246       -5.1896391691        2.5759420939
 H        -4.0838729281       -4.0117740618        1.4114128540
 H        -5.0943038252       -5.2816239703        0.8430653227
 H       -13.1293556127       -3.7743238725       -0.1180393896
 H       -13.0581020411       -5.3721896743        0.7271473358
 H       -13.7506476046       -5.2000852761       -0.9567595337
 H       -10.6532646914       -7.0370468818       -1.9303704393
 H       -12.2671779276       -6.7570175600       -2.2811088786
 H       -11.8091392336       -7.5541336759       -0.6703205143
 Na      -10.9043088802       -1.9604667926        0.0336028815
