117

 C       -10.9174308327       -4.8846195087       -3.3150438910
 C       -10.9767983562       -4.2981291455       -1.9151684098
 O       -10.5359667927       -3.2068644077       -1.6595268478
 C       -11.4394603144       -5.1849226629       -0.7600869828
 C       -10.7499863583       -4.8774541856        0.5907209421
 O       -10.9068332549       -3.8208505043        1.1717392464
 C        -9.7895232494       -5.9769324069        1.1107622833
 C        -8.7245470821       -5.5882770363        2.1618031417
 C        -7.4227839440       -5.3066156658        1.6692104464
 O        -7.0065782049       -5.6180032574        0.5360077798
 C        -6.4617120812       -4.4212136011        2.5676685206
 C        -7.0696315581       -2.9747682322        2.6050610583
 O        -7.6900765802       -2.6205620003        3.5945676179
 C        -6.6068672536       -1.9352691560        1.5437679650
 C        -7.1109790941       -0.5607622567        1.7936096626
 C        -8.4584419440       -0.4763050300        0.9577041378
 O        -9.2091424857       -1.3778334866        0.9812440496
 C        -8.6647578009        0.8524845045        0.0442005135
 C       -10.3719290084        1.2571777955        0.5062958037
 O       -11.2950839353        0.5404474646        0.1833367144
 C       -10.6343063386        2.4292394328        1.3168833903
 C       -11.6913662781        3.4340648384        0.6412374635
 C       -11.5667119024        3.5157018448       -0.9060978113
 O       -11.0451229976        2.6049873395       -1.5273094417
 C       -12.0370589984        4.8502855192       -1.6709623631
 C       -11.1375945678        5.9756140116       -1.0610049184
 O       -11.1264282048        6.3998150650        0.1075103804
 C       -10.0326050794        6.5954363674       -2.0516466041
 C       -10.1070143157        8.0908196288       -2.0166233740
 C       -11.3520585077        8.9118493597       -2.4871493472
 O       -11.7917233147        8.7575851425       -3.6534222968
 C       -12.0653795903       10.0251903328       -1.6459401367
 C       -10.8531250213       10.9917959294       -1.0761672236
 O       -10.1074718769       10.4908735193       -0.2962877757
 C       -11.0763562558       12.4834505902       -1.1338002162
 C       -10.1951931717       13.3356105567       -0.1552049952
 C        -9.9541492253       14.7418096815       -0.7679302573
 O       -10.7018792238       15.1027498884       -1.5904457777
 C        -8.7484062444       15.6217887652       -0.0049992343
 C        -7.7039038277       15.8518275511       -1.1111713068
 O        -6.8031497440       15.0751109638       -1.2871833662
 C        -7.8166215720       17.0918067207       -2.1385332609
 C        -9.4580043785       16.8721719694        0.6559799976
 C        -8.0915629389       14.8214823418        1.1354320338
 C       -13.0490614121       10.7602552671       -2.5977308536
 C       -12.4669284201        9.4422214050       -0.2911942114
 C       -11.9377486224        4.6974960086       -3.2885614927
 C       -13.5727875456        5.0037474064       -1.2610311414
 C        -7.7250798526        2.0809146405        0.5378081149
 C        -8.5031892535        0.4658732766       -1.3846464416
 C        -6.6060338635       -5.0178525641        4.0003832147
 C        -5.1096243489       -4.4901688199        2.0067009269
 C       -12.9755568991       -4.8457202811       -0.5967802891
 C       -11.4339812473       -6.7178680662       -1.1404025156
 H       -10.5612825573       -4.1150341427       -3.9479798671
 H       -11.8640025865       -5.1735426067       -3.6465825429
 H       -10.2544488787       -5.6093615636       -3.3325394877
 H        -9.1333037764       -6.4888563274        0.3540457445
 H       -10.5655949612       -6.7152766783        1.5863406494
 H        -8.8103518670       -6.3313895320        2.9514826624
 H        -9.1067626367       -4.6002997987        2.7601213905
 H        -6.7216375807       -2.3220230436        0.5031198860
 H        -5.5067463132       -1.8700756472        1.5964721092
 H        -6.5246250292        0.1396318706        1.1660814942
 H        -7.1139475256       -0.2892197230        2.9278517926
 H        -9.7431760885        2.9532779572        1.5595732601
 H       -11.2920640916        2.1512842939        2.2221892374
 H       -11.5546690917        4.3684599814        1.1913387088
 H       -12.6226221314        3.0604120649        0.9927914636
 H       -10.3136800217        6.2730220782       -3.0296351879
 H        -9.0516903805        6.2626297319       -1.6604834343
 H        -9.3268410121        8.6063864344       -2.6176627740
 H        -9.7729312470        8.3329619678       -0.9833360934
 H       -12.0505497199       12.5692503732       -0.7107561542
 H       -10.8660438762       12.8889923629       -2.1517885602
 H        -9.2063957674       12.8830481758       -0.1004642812
 H       -10.7197634225       13.4387800721        0.7981675592
 H        -8.7949547636       16.9495268144       -2.5933537614
 H        -7.2239475770       16.8427018327       -2.9717130640
 H        -7.8801287111       18.0379838757       -1.5782179404
 H       -10.4243015780       16.7447076685        1.1249892861
 H        -9.4736358501       17.8569521533       -0.0094581044
 H        -8.8576758746       17.0228826916        1.5818374926
 H        -7.2829826625       15.2953865875        1.6061928592
 H        -7.6629461589       13.8055022259        0.7966785981
 H        -8.7668153590       14.5372718963        2.0066611600
 H       -14.0050432139       10.3848325211       -2.4661998421
 H       -12.9018764303       10.4659925285       -3.6442085793
 H       -12.9659254811       11.8321402953       -2.3411267939
 H       -13.0447270203       10.3075798687        0.2047619566
 H       -11.6152463535        9.1836310587        0.4383765484
 H       -13.1768882865        8.5995245479       -0.3425546587
 H       -10.8630048486        4.9077641080       -3.4842868814
 H       -12.7181784122        5.4247084856       -3.7547510075
 H       -12.2140798522        3.6416892474       -3.3620710260
 H       -14.1019579917        5.8332021430       -1.8183517083
 H       -13.6956185543        5.2019091658       -0.1694901300
 H       -14.1103205610        4.0532360380       -1.4952608136
 H        -7.7853793923        2.9923931428       -0.0496687951
 H        -6.7589070426        1.5951302244        0.4720464207
 H        -7.9721809390        2.5536685583        1.5161214117
 H        -9.1443641053       -0.5152645393       -1.5462348013
 H        -7.4145769576        0.3571506641       -1.7605317205
 H        -8.8641297248        1.3431257137       -2.0081473597
 H        -5.9079483747       -4.5113904675        4.7033479036
 H        -6.2870693335       -6.0220874320        3.9960991446
 H        -7.6443747978       -4.9039856837        4.3278086127
 H        -5.0388712090       -5.2505840168        1.2439135505
 H        -4.3461078853       -4.8878152449        2.7022368833
 H        -4.6231544330       -3.6252186768        1.4956568956
 H       -13.2083425644       -3.7479511554       -0.5976447950
 H       -13.4000609965       -5.2567739029        0.3305252245
 H       -13.5321466939       -5.2929991109       -1.4616317196
 H       -10.4151871405       -6.8146427138       -1.5910767359
 H       -12.1878204942       -6.9749626378       -1.9797496799
 H       -11.6976604331       -7.5175719324       -0.3770567379
 Na      -11.1281819248       -1.6254727949        0.2317557314
