117

 C       -10.5800905440       -4.8344555893       -3.2033677632
 C       -10.8691284016       -4.3092702175       -1.8301589540
 O       -10.3554294893       -3.2193473802       -1.5758827496
 C       -11.6375695925       -5.1510562048       -0.6940694748
 C       -10.7319636311       -4.9178547994        0.5668116515
 O       -10.8731324294       -3.9051265001        1.1899345814
 C        -9.9710565873       -6.0728618576        1.3195637993
 C        -9.0375943024       -5.4505843061        2.4292891734
 C        -7.6224912515       -5.3168620343        1.9418779476
 O        -7.1987119104       -5.8008696667        0.8751638285
 C        -6.5569640393       -4.4970822972        2.8061814632
 C        -7.0100819385       -2.9654665382        2.8294165984
 O        -7.5040982775       -2.4626143800        3.8236583924
 C        -6.6969548998       -2.0070307698        1.6094792455
 C        -7.1394717436       -0.5760834078        1.7119605539
 C        -8.5810373890       -0.4755765940        1.0343275097
 O        -9.4546231078       -1.2906844864        1.0324295237
 C        -8.8783120553        0.9464839889        0.3124294671
 C       -10.4298817625        1.2420015405        0.5729634386
 O       -11.3452990530        0.5552445922        0.2309287196
 C       -10.8208313673        2.3817053519        1.4165095560
 C       -11.6670213022        3.4566278269        0.7308309780
 C       -11.3885347106        3.5441749824       -0.7990234434
 O       -10.5570967459        2.8142840820       -1.2585388032
 C       -12.0106901297        4.7342305196       -1.5835582568
 C       -10.8856431146        5.9620863559       -1.3925361879
 O       -10.6799726178        6.2554519425       -0.2096430379
 C       -10.3399718859        6.7937092820       -2.5383974728
 C       -10.1396845730        8.2141479995       -1.8971588852
 C       -11.3396784449        9.0910551871       -2.4592938385
 O       -11.5958064349        8.9356892785       -3.6773319631
 C       -12.1314417644       10.1907973391       -1.7157401641
 C       -11.0082438572       10.9920570931       -1.0297904900
 O       -10.1343588576       10.3758206227       -0.4397690605
 C       -10.9673829187       12.4921719992       -1.1390090622
 C        -9.6741827203       13.2284467969       -0.4972409217
 C        -9.7171031442       14.7185256334       -0.7921008160
 O       -10.6185349853       15.3061700262       -1.2994634940
 C        -8.5614417223       15.6127056700       -0.1894062640
 C        -7.4911225818       15.8287745252       -1.3439266368
 O        -6.7778880291       14.9367983054       -1.7149212309
 C        -7.8975037719       16.9518043353       -2.2720394810
 C        -9.1214477847       17.0126218569        0.2316740649
 C        -7.7344545174       15.0097402730        0.9249858991
 C       -13.1873987718       11.0479889912       -2.6347844231
 C       -12.9783179383        9.2121907400       -0.8084773808
 C       -12.2973143938        4.2061897358       -3.1088201840
 C       -13.2653483580        5.2937669088       -0.9997904486
 C        -7.8723074800        2.0460515238        0.5424368940
 C        -8.8184782791        0.4973187478       -1.2246612546
 C        -6.5923140277       -5.0924316369        4.2231223514
 C        -5.0694702147       -4.7645019619        2.2110799250
 C       -13.1212245600       -4.6054090935       -0.5777646311
 C       -11.4838561537       -6.6711688516       -1.1687665321
 H        -9.6361496042       -4.4183782881       -3.6407006443
 H       -11.4700159558       -4.4463667512       -3.7406523911
 H       -10.5550615737       -5.8588082084       -3.3143390438
 H        -9.3861762117       -6.6839144511        0.6079900110
 H       -10.7220194061       -6.7969880637        1.6760706956
 H        -9.1797617351       -5.9920577901        3.3396192395
 H        -9.5627333624       -4.4830755795        2.6820409963
 H        -7.0726973037       -2.4846624124        0.6944235292
 H        -5.6447977021       -2.0174383567        1.3944124566
 H        -6.5519180921       -0.0193915864        1.0538602786
 H        -7.2123843573       -0.0632659926        2.6031217129
 H        -9.9447583294        2.9042581597        1.9304243635
 H       -11.3763679726        2.0103879947        2.3082608268
 H       -11.6677082141        4.4501458286        1.3925799744
 H       -12.6695119130        3.0652065581        0.7209622596
 H       -11.0129203591        6.9354705485       -3.4189014566
 H        -9.2929086433        6.3919618509       -2.8134201384
 H        -9.2738134217        8.6308915670       -2.3657343655
 H        -9.9693136598        8.3005707282       -0.7880233232
 H       -11.7807508533       12.8048821946       -0.5162113131
 H       -10.9903549086       12.8677150676       -2.1463062261
 H        -8.7054099765       12.8698614700       -0.8243728398
 H        -9.6416819884       13.2416591995        0.6317908842
 H        -8.6864739657       16.4669908795       -2.9055958934
 H        -7.1359229483       17.0055528718       -3.0312348079
 H        -8.1961135790       17.8781587176       -1.7343542992
 H        -9.3768730839       16.9842933953        1.2317827790
 H       -10.0982015056       17.0878239863       -0.2900440951
 H        -8.5133123411       17.8235558491        0.2716286931
 H        -7.0224213994       15.7170835584        1.2536490866
 H        -7.0033917498       14.2462509388        0.6717120480
 H        -8.3036386140       14.6514171783        1.7867770505
 H       -13.8995361524       10.3073041707       -2.9864586441
 H       -12.5326742390       11.4392255461       -3.4991915047
 H       -13.6778217098       11.8906160620       -2.0964716526
 H       -13.5159263826        9.5800597574        0.1057890960
 H       -12.1891591121        8.6419986784       -0.3277417458
 H       -13.7121178221        8.7537546461       -1.3468326466
 H       -11.6712328888        3.4111953981       -3.2874624730
 H       -12.0744854398        5.0234122392       -3.7452839798
 H       -13.2735083833        4.0048235227       -3.0274557967
 H       -13.7273817296        6.0846688772       -1.6231693530
 H       -13.1193715040        5.6283306110        0.0080073983
 H       -14.0391893166        4.5904128972       -0.9762354667
 H        -8.1500868653        2.9578147675        0.0731444473
 H        -6.9012009051        1.7770653364        0.2806085069
 H        -8.0491805851        2.3117341434        1.5307786052
 H        -7.7750741441        0.6287762780       -1.4460389783
 H        -9.3377910530        1.1683311817       -1.8742171007
 H        -9.2586409842       -0.4043168645       -1.4713414573
 H        -5.7752362507       -4.7883046349        4.8703864682
 H        -6.4088947648       -6.1483364076        4.0559557070
 H        -7.5299180846       -4.8362430754        4.7636292779
 H        -4.4333629836       -3.9339845240        2.2953355814
 H        -4.9280874205       -5.2770977499        1.3149859906
 H        -4.5287833254       -5.4652681702        2.9254599851
 H       -13.3274176888       -4.0786982802        0.3308040234
 H       -13.7735072708       -5.4171248422       -0.5792867873
 H       -13.4214197883       -3.9829613123       -1.4140959637
 H       -10.4945301313       -6.9575202872       -1.3669270707
 H       -12.2098477159       -6.9064338707       -1.8934823501
 H       -11.7780079386       -7.2386659050       -0.3153734815
 Na      -11.4585266200       -1.9750205298       -0.2230543291
