117

 C        -4.9617884976       -1.1451108428        9.2380065414
 C        -6.4859350174       -0.9694216841        9.1765155495
 O        -6.9763290090       -0.1768576827        9.9423221640
 C        -7.1862358890       -1.6642007542        7.8908413843
 C        -6.7172513753       -0.8502045265        6.6677934523
 O        -6.2591654661       -1.3641722089        5.6732577919
 C        -6.9220298570        0.6421903269        6.7199094522
 C        -5.9336240268        1.4462061783        5.7857835630
 C        -6.5889043187        2.6590020172        4.9101142916
 O        -7.8265287663        2.7432966542        4.7651873506
 C        -5.6259401837        3.8405735322        4.3887486962
 C        -5.4813669735        3.7128955800        2.7937892398
 O        -4.5607241770        3.1305017018        2.2821516400
 C        -6.3669980536        4.5656635633        1.8900179208
 C        -6.2311301769        4.2252523442        0.4053958376
 C        -7.6049484866        3.9179607360       -0.2769948458
 O        -8.0645930511        4.6657273735       -1.0886625036
 C        -8.2651878899        2.5425192338       -0.0681072096
 C        -9.6921241634        2.8840256761        0.7376413082
 O        -9.5773209842        3.7614994371        1.5263129878
 C       -10.9888518558        2.1416465070        0.3414283169
 C       -12.2984073407        2.9264896260        0.6245380353
 C       -12.3935878752        4.2388517856       -0.1670481092
 O       -11.3937465864        4.9190312678       -0.4337810335
 C       -13.6990058504        4.5042004618       -0.7963071441
 C       -13.5871632285        4.2367122042       -2.2580270799
 O       -12.5606744470        3.9697685466       -2.8026792404
 C       -14.9348661919        4.2888996786       -3.1518027946
 C       -14.6024119241        5.0984628176       -4.3935667546
 C       -15.2149977373        6.5305220357       -4.3966081252
 O       -15.8882287125        6.9414434789       -3.5123154137
 C       -15.0560914777        7.2976810380       -5.8280941035
 C       -13.6282519916        6.9008816695       -6.4508676598
 O       -13.5942237731        6.1736250504       -7.4106131302
 C       -12.3941961418        7.4617998586       -5.7434779292
 C       -11.1295921423        6.6590334488       -6.2649477836
 C       -10.3162186191        5.9986018272       -5.0954681546
 O       -10.6160039849        6.0835876841       -3.9042967678
 C        -8.9423010024        5.3143732650       -5.3432548431
 C        -9.0986654470        3.7420298211       -5.0278870927
 O        -9.7916224384        3.3019255666       -4.1506947597
 C        -8.5059740317        2.5720995845       -5.8680606206
 C        -8.4576145757        5.3710626339       -6.8332685306
 C        -7.9687859983        5.9017757211       -4.2213292468
 C       -16.1501618813        6.8021141455       -6.7801300264
 C       -15.2225833306        8.7803533377       -5.5883131322
 C       -14.9802562058        3.8412693896       -0.2478820450
 C       -13.9707658992        5.9677010273       -0.5759189740
 C        -8.4050890531        1.9568889204       -1.4775930782
 C        -7.4283308552        1.6366315969        0.9563340005
 C        -6.3116380473        5.2599253383        4.6026776151
 C        -4.2604724490        3.6831602058        5.0357568573
 C        -6.8033282127       -3.1335612351        7.8800510387
 C        -8.7429340093       -1.6537711687        7.9463184382
 H        -4.5743755323       -0.2844144474        9.7908636707
 H        -4.5547446978       -1.1345396972        8.2611338160
 H        -4.5934418655       -2.1406401155        9.6584445971
 H        -6.9194307143        0.9349942619        7.7795961217
 H        -7.8654657846        0.8627926396        6.3804646199
 H        -5.7909343717        0.5964801550        5.1088739006
 H        -5.0584161020        1.7182714047        6.3534346355
 H        -6.0985909419        5.6234825682        2.1090584583
 H        -7.3386804944        4.4040103485        2.2911020925
 H        -5.4959297842        3.3390986528        0.4203273903
 H        -5.6757743299        5.0224787059       -0.1305774285
 H       -11.1392980285        1.1983301389        0.8219548749
 H       -10.8952266672        1.7762244192       -0.7088838251
 H       -12.4489018491        3.1366041682        1.6673969403
 H       -13.1046646755        2.2636159496        0.3389885567
 H       -15.6721557103        4.8666653378       -2.6689005690
 H       -15.2771842595        3.2905175848       -3.4302419468
 H       -15.0428747353        4.5956121100       -5.2963830689
 H       -13.4639862799        4.9444580167       -4.5470697434
 H       -12.6416821951        7.3376476744       -4.7087768896
 H       -12.3398098430        8.4976173985       -5.9624618372
 H       -10.4638918503        7.1585118215       -6.9196921754
 H       -11.6500594038        5.7899250058       -6.7236616055
 H        -7.5335360658        2.4546587622       -5.4053005187
 H        -8.3915169858        2.6792484374       -6.9483201156
 H        -9.2340688327        1.7820127001       -5.5975498594
 H        -8.1708242719        6.3880235730       -7.1658357551
 H        -9.2381934632        4.9906989502       -7.5383502524
 H        -7.6007233528        4.6889667043       -6.9283910477
 H        -8.1595431947        5.7012720732       -3.1509922801
 H        -8.0000895162        6.9090112351       -4.4974084771
 H        -6.9250716072        5.5342741923       -4.3868749245
 H       -16.1905320795        5.7024341619       -6.8498568714
 H       -15.9264439179        7.1255409741       -7.7963889530
 H       -17.1929297050        7.2144703446       -6.4546912967
 H       -15.4075611212        9.1547096550       -6.5470807654
 H       -14.3167121702        9.3458750488       -5.1664475681
 H       -16.1155986054        9.0095510847       -4.9951207186
 H       -15.1775495284        4.1425167052        0.8128742960
 H       -15.0395587062        2.7522771545       -0.2707692471
 H       -15.8057572188        4.3302151791       -0.8733382748
 H       -14.1927690050        6.2246074440        0.4270912921
 H       -14.8451322757        6.2332514808       -1.1549400942
 H       -13.1475752822        6.5905235890       -0.9555612086
 H        -8.9109524019        0.9827324767       -1.4242729072
 H        -7.3505145626        1.8114860571       -1.7778539872
 H        -8.9261716115        2.6246467477       -2.0984902103
 H        -7.7567548599        1.9369037895        1.9628740684
 H        -6.3160860524        1.7804358734        0.6843144425
 H        -7.6197183648        0.6032495012        0.8197973912
 H        -6.1690573635        5.6788781707        5.5843243274
 H        -7.3718051293        5.1205785958        4.3561312041
 H        -5.8733663350        5.9913234048        3.8989362928
 H        -4.3615600702        3.9311586388        6.1125920274
 H        -3.5757808792        4.4441588712        4.6231571302
 H        -3.7397005447        2.7176361942        5.0748650094
 H        -5.7504363528       -3.2696378531        8.0512349183
 H        -7.0135734097       -3.5488354069        6.8615146199
 H        -7.4152996301       -3.6375455727        8.5993642565
 H        -9.1391122524       -0.6313230171        8.1375659448
 H        -9.1265122779       -2.2734057394        8.8345794120
 H        -9.1961116818       -2.1147680943        7.0402841605
 Na      -10.2384149471        4.6543448224       -2.1806395259
