117

 C        -9.7357328725       -5.3061775707       -2.6240204666
 C       -10.6264286013       -4.5413694134       -1.6833468612
 O       -10.3374394520       -3.3398957883       -1.6586456824
 C       -11.6328399765       -5.1638416039       -0.7173796128
 C       -11.2317035317       -4.9139760086        0.7743136860
 O       -11.6616809130       -3.9148587870        1.3400436352
 C       -10.3174238162       -5.8300797918        1.5088079909
 C        -9.4026104835       -5.1503525719        2.5050160123
 C        -7.9796707298       -5.1319728586        2.1212343323
 O        -7.6741679003       -5.4612815152        1.0021193852
 C        -6.9360460884       -4.5875447340        3.1141884510
 C        -6.9750224878       -2.9631662818        3.0408123908
 O        -7.4178411764       -2.3413490122        3.9596334065
 C        -6.6120641337       -2.2344096979        1.7499430491
 C        -7.1600540212       -0.7878867333        1.6321127837
 C        -8.6825376257       -0.7335375116        1.2972197667
 O        -9.4937108591       -1.5916693559        1.6763156374
 C        -9.1055030132        0.5253693353        0.4950425981
 C       -10.5955721338        0.8090620135        0.7053001426
 O       -11.5085987371        0.0391271032        0.3324271624
 C       -10.9563932228        2.2058337954        1.5280552451
 C       -11.8544145939        3.2403079062        0.8708773471
 C       -11.2432594261        3.7671514247       -0.4640855978
 O       -10.2129894251        3.2461708229       -0.8628116410
 C       -11.8740446573        4.8525539654       -1.3389236367
 C       -10.7848126939        6.1039851779       -1.5209009531
 O        -9.8901040153        6.2757678832       -0.7293037207
 C       -11.1465605732        7.1090152573       -2.5751517382
 C       -10.4124469743        8.3999133620       -2.4405413534
 C       -11.2956526831        9.5157974749       -3.0868511453
 O       -11.6847228301        9.5310751693       -4.2749715785
 C       -12.0471258706       10.3905261931       -1.9407597371
 C       -10.9413124907       11.2647097679       -1.1619012874
 O       -10.0727308412       10.6564043722       -0.4796158282
 C       -10.6599413723       12.7556298286       -1.6193107799
 C        -9.4647765750       13.2857363812       -0.8054738661
 C        -9.4694670600       14.8054006885       -0.7622249477
 O       -10.5276821066       15.4193250256       -0.9211026366
 C        -8.1380775782       15.5988446940       -0.5509284253
 C        -7.3997617613       15.6258317003       -2.0733185816
 O        -6.5004217108       14.8476828723       -2.2135865736
 C        -7.9815667724       16.5540048745       -3.2792437896
 C        -8.3934108564       17.0532550734       -0.0626157152
 C        -7.2251359935       14.8444391722        0.3965635331
 C       -13.1656923122       11.2056607838       -2.5784716990
 C       -12.8366685981        9.3395393828       -0.9865205105
 C       -12.2577887203        4.2754603327       -2.7086017766
 C       -13.1106931176        5.4642603911       -0.6504289698
 C        -8.1353063059        1.7579120974        0.5730446623
 C        -8.7263012530       -0.0382422198       -0.9768679604
 C        -7.4531871753       -4.9455551183        4.5664811031
 C        -5.4402526419       -5.0312478893        2.8139052119
 C       -13.0354481787       -4.4030859897       -0.9193587659
 C       -11.7016117401       -6.7099487272       -0.8978437327
 H        -9.1803014502       -4.6483047349       -3.2125387352
 H       -10.0639072494       -6.2862930857       -2.9330235690
 H        -9.0420680809       -5.6523917474       -1.9741457394
 H        -9.6011608499       -6.3255144607        0.7436604817
 H       -10.8218130588       -6.8062163352        1.8001839105
 H        -9.3541898937       -5.7093015499        3.5543446994
 H        -9.6356401937       -4.1269031154        2.6777563190
 H        -7.0498917434       -2.8456341547        0.9780339725
 H        -5.5133189620       -2.2961429833        1.5665411629
 H        -6.8867730655       -0.2612068023        0.7157175930
 H        -6.9652761822        0.0021313613        2.3693372052
 H       -10.0350315746        2.7251966478        1.9431217895
 H       -11.4389386812        2.1457484889        2.4264436257
 H       -11.8858103235        4.0523662715        1.5761571271
 H       -12.8757416166        2.8894269599        0.7302054886
 H       -12.2806306865        7.1619371297       -2.7427156855
 H       -10.7641388708        6.7199421677       -3.5506441147
 H        -9.3773079349        8.3459699933       -2.8917646959
 H       -10.2792102738        8.4420634166       -1.3542503802
 H       -11.6068664611       13.3385330178       -1.5442197130
 H       -10.5901277290       12.5649565601       -2.6736314883
 H        -8.5692777046       12.7272352920       -1.0678073605
 H        -9.4535031186       12.9542945180        0.2020569914
 H        -8.4065981087       17.4847839522       -2.8644123913
 H        -8.7204507036       15.8976353682       -3.8220429308
 H        -7.1321402605       16.5504705339       -3.9507231635
 H        -8.8335735080       17.1391552594        0.9989612031
 H        -9.0928512111       17.5942627997       -0.7778169243
 H        -7.4702875996       17.5529986190       -0.1899874203
 H        -6.3001930396       15.4125485420        0.7871494891
 H        -6.9109994219       13.8660505701        0.1075860767
 H        -7.7252066091       14.7195466299        1.3374145884
 H       -13.8664706792       10.4049588851       -3.0478578465
 H       -12.7803919243       11.9804089446       -3.2393660788
 H       -13.8063761695       11.7516606041       -1.8905591995
 H       -12.9812592241        9.8111420058        0.0431040590
 H       -12.3405884291        8.3448066900       -0.7971178260
 H       -13.8637966166        9.0756367212       -1.4421845423
 H       -11.5224229956        3.4852895179       -2.7962741884
 H       -12.2701097625        5.1017706234       -3.4825107592
 H       -13.2824079833        3.8462055861       -2.6700455640
 H       -13.3710007142        6.4430442939       -1.0040983489
 H       -12.8633851195        5.7121053500        0.3967674957
 H       -14.0029166492        4.8417675622       -0.5130019533
 H        -8.4819808850        2.6069801283        0.0259629141
 H        -7.1266255918        1.6519379605        0.4532518170
 H        -8.0667365204        1.9597860158        1.6214444170
 H        -9.1368438391       -1.1133192200       -1.1550556922
 H        -7.6547640648       -0.1989280185       -1.2216614908
 H        -9.1560660494        0.5639209685       -1.7663664790
 H        -6.6023653189       -4.9958837939        5.1832884444
 H        -7.9021136339       -5.9578200954        4.6832076682
 H        -8.1137438877       -4.2703605231        5.0412652443
 H        -5.0070747892       -4.4118839737        1.9273834399
 H        -5.3491743321       -5.9865401480        2.4619824168
 H        -4.9034528663       -4.9906407621        3.7697219397
 H       -13.2101844447       -4.0665609926       -1.9037282387
 H       -12.9472292852       -3.4963144980       -0.3733640635
 H       -13.9089561798       -4.8753558819       -0.5726588636
 H       -10.6725178122       -7.1476255312       -0.9704741586
 H       -12.1356910832       -6.9679786110       -1.8253213932
 H       -12.1579673215       -7.0548098144        0.0233450657
 Na      -11.1012698955       -2.0053210266       -0.2256778199
