117

 C        -9.4540880933       -5.6081523467       -2.1348352691
 C       -10.4719703625       -4.6868611107       -1.5837227195
 O       -10.4555891208       -3.4640292582       -1.6302665241
 C       -11.6889594085       -5.2475503475       -0.7698504799
 C       -11.4041018823       -4.9431070891        0.7398416428
 O       -11.7556628398       -3.8573270362        1.2242056779
 C       -10.4664414169       -5.8888242998        1.4724834191
 C        -9.5785315994       -5.2334026320        2.5800904189
 C        -8.0871947205       -4.9995535734        2.1808938356
 O        -7.6952731015       -5.2550309868        1.0463048172
 C        -7.1469424867       -4.5587460544        3.2347502810
 C        -7.0540961151       -2.9747752171        3.1828149122
 O        -7.4291675611       -2.2499828070        4.0902472076
 C        -6.6431731741       -2.3172824596        1.9031950578
 C        -7.0556350615       -0.9304489403        1.7843287557
 C        -8.4986823776       -0.7135830139        1.1835587471
 O        -9.3303465614       -1.5388537663        1.5143402975
 C        -8.9858799001        0.6065176345        0.3691681091
 C       -10.4773234344        0.9489786655        0.8245690404
 O       -11.3446149944        0.1903148277        0.4647879616
 C       -10.8660364349        2.1777560577        1.7010158630
 C       -11.7176768901        3.2555327787        0.7788456481
 C       -11.0945889306        3.6601348406       -0.6058800233
 O       -10.0893500545        3.1708623269       -1.1333113252
 C       -11.7956949279        4.8214120676       -1.2426840589
 C       -10.8365451367        5.9507381119       -1.5777341838
 O        -9.9038618384        6.1598485936       -0.8656597640
 C       -11.1690786371        6.8929802659       -2.7400329795
 C       -10.6483488378        8.3981497427       -2.5646307579
 C       -11.4927773330        9.5764732762       -2.9959898707
 O       -11.3379074476        9.9498029971       -4.1012356359
 C       -12.2331205301       10.5083956413       -1.9675839659
 C       -10.8621341992       11.1795440753       -1.3832929643
 O       -10.1541371645       10.5373970283       -0.7175574726
 C       -10.5122702685       12.6844079792       -1.8420718519
 C        -9.5132726938       13.3489658046       -0.9697635294
 C        -9.4094404736       14.8227461334       -0.8559349740
 O       -10.4160983055       15.5050630414       -0.8562460015
 C        -8.0081117825       15.5262048034       -0.7112575132
 C        -7.3985534661       15.5511466997       -2.1977004093
 O        -6.4176198423       14.8479382408       -2.4436464353
 C        -8.1214379077       16.3924884272       -3.3329494735
 C        -8.1239485847       17.0293294837       -0.4051624058
 C        -6.9410237519       14.7884880247        0.3346048895
 C       -13.3551168403       11.4572123899       -2.7126635923
 C       -12.8001346667        9.9257550984       -0.6303776466
 C       -12.4475396193        4.1359043461       -2.5928725002
 C       -12.9064159174        5.5108196841       -0.4631037204
 C        -8.1379365554        1.7973175220        0.8630094278
 C        -8.8384972023        0.1799852619       -1.1309949591
 C        -7.5486925018       -4.9183023929        4.6766333853
 C        -5.7579627187       -5.1326530110        3.0250861418
 C       -12.9100040054       -4.6873530896       -1.2421908178
 C       -11.9934551700       -6.7622155458       -0.9801085966
 H        -8.7537363733       -4.9561055316       -2.8495875416
 H        -9.9632898317       -6.5257122839       -2.5063842624
 H        -8.6939557597       -6.1608687167       -1.4364837585
 H       -10.0530053448       -6.6730805148        0.8989450576
 H       -11.1187877084       -6.5044739266        2.0835679536
 H        -9.6122045639       -5.9428968184        3.4115522482
 H       -10.0625852534       -4.2736651958        2.7700227657
 H        -6.9582299540       -2.9927148447        1.0579307560
 H        -5.5597668257       -2.2710781341        1.8812308231
 H        -6.4727435980       -0.2000831866        1.2351925786
 H        -7.1414990613       -0.4612656635        2.7886295778
 H       -10.0732820773        2.6391497288        2.2124166965
 H       -11.6448490213        1.8576690548        2.5166812896
 H       -12.0642767583        4.1529243356        1.3391786295
 H       -12.6482426567        2.7988350754        0.3271922112
 H       -12.1735270483        6.8253490142       -2.9936358057
 H       -10.7402676827        6.5810537090       -3.6694655181
 H        -9.7743679831        8.4307691260       -3.1887589256
 H       -10.3318749722        8.5164068305       -1.5143299387
 H       -11.4583181164       13.2713927387       -1.7984931456
 H       -10.4004267164       12.6899352029       -2.9687573058
 H        -8.5326216139       12.9126685904       -1.2196040553
 H        -9.4671676542       12.9904324002        0.0849727598
 H        -7.9264993289       17.3741469351       -3.0063531865
 H        -9.1308230602       16.0917859992       -3.2904227250
 H        -7.7783809466       16.0504890146       -4.3081922424
 H        -7.9780652283       17.0289016322        0.6639293342
 H        -9.0564891614       17.4379016908       -0.5920765331
 H        -7.3863687363       17.7041732105       -1.0102633515
 H        -6.1597257863       15.4602731375        0.5432153530
 H        -6.5884326921       13.7336861099        0.0939359641
 H        -7.2876977870       14.7409482737        1.4075825176
 H       -13.1653196770       11.4308758557       -3.7782197656
 H       -13.2376963613       12.5124304200       -2.3782551168
 H       -14.4090158112       11.1850595354       -2.5292379615
 H       -13.6010646043       10.4885534203       -0.1865491069
 H       -12.0091652263        9.6714165503        0.0865269570
 H       -13.0579815742        8.8559168931       -0.8741623458
 H       -11.8014407097        3.3011621225       -2.9866621580
 H       -12.8076711371        4.9392068701       -3.1918521762
 H       -13.3948277260        3.7151374730       -2.1648886740
 H       -13.6261140857        6.0791511196       -1.0756308361
 H       -12.6401062928        6.2952571979        0.2553379739
 H       -13.4181256006        4.7872384924        0.1865432901
 H        -8.5374813872        2.7463470693        0.3575057917
 H        -6.9831136386        1.7847375874        0.7512006352
 H        -8.0098512358        1.8998958964        1.9924449675
 H        -8.3032986183       -0.7416856115       -1.2545247585
 H        -8.2608770609        0.7428115357       -1.8574070355
 H        -9.8885845275       -0.0210533808       -1.5434659371
 H        -6.8962593343       -4.5222549527        5.4841800344
 H        -7.5957177144       -5.9461097046        4.8790070529
 H        -8.5866545572       -4.6225614801        4.8155548225
 H        -5.1235868021       -4.8362958174        3.8513029074
 H        -5.2406437539       -4.7457802787        2.0120489755
 H        -5.8482118330       -6.2233084596        2.9147445200
 H       -13.6015302953       -5.3901130461       -1.7279800533
 H       -12.8401657358       -3.8207786713       -1.9469578694
 H       -13.4810791854       -4.2964605947       -0.3743349455
 H       -11.2462385599       -7.4486632069       -0.6126863855
 H       -12.0120568378       -6.9391760812       -2.0981426731
 H       -12.9218004575       -6.9069178442       -0.4227892144
 Na      -11.2984760670       -2.0030450840        0.1407533510
