117

 C        -9.2819654815       -5.7832036233       -1.7235196810
 C       -10.4427111690       -4.8292557976       -1.4415372646
 O       -10.3802749165       -3.6162716113       -1.4796472789
 C       -11.7968733198       -5.4028035449       -0.8962570136
 C       -11.5378397942       -5.0788492751        0.6620612407
 O       -11.8369591734       -4.0226017363        1.1289757237
 C       -10.6907341818       -6.0593318675        1.5481451251
 C        -9.8432409174       -5.3241147663        2.6745455087
 C        -8.3482420300       -5.0135366204        2.3608596821
 O        -8.0574150131       -5.0114343780        1.1989260651
 C        -7.3360494398       -4.5879621837        3.4301825338
 C        -7.2367277898       -2.9645133538        3.3284824950
 O        -7.4874660243       -2.2385909145        4.2421992284
 C        -6.7235942344       -2.3523411772        2.0478692058
 C        -7.0661905302       -0.8687345953        1.8198723897
 C        -8.4784217288       -0.6916155727        1.2282766377
 O        -9.0868514828       -1.7485884804        1.0755102745
 C        -8.8088288367        0.6287077945        0.5629014425
 C       -10.4332807224        1.0270659103        0.8901609253
 O       -11.2893945041        0.2793149656        0.4574539035
 C       -10.6456755740        2.3593943023        1.6578830396
 C       -11.6326126185        3.1135424773        0.9365171536
 C       -11.0917414941        3.6211363496       -0.5219446929
 O       -10.2130889248        3.0437986786       -1.0680895262
 C       -11.9245893583        4.7485068486       -1.3175703620
 C       -10.9446282057        5.9172467363       -1.7848321946
 O        -9.8835000269        6.0753075835       -1.1973366804
 C       -11.3233383187        7.0302928174       -2.8452750930
 C       -10.7054094789        8.4353633075       -2.4240274096
 C       -11.4868126766        9.6935398968       -2.8932767585
 O       -11.3670667527       10.0325749754       -4.0808999825
 C       -12.1876062243       10.7095451887       -1.9445643073
 C       -10.7903476931       11.4831097311       -1.4672965744
 O        -9.9927512036       10.8468041167       -0.7244161943
 C       -10.5224903199       12.9404610838       -1.8126084718
 C        -9.2212551322       13.4006849331       -1.0968172160
 C        -9.2529991171       14.9126945557       -0.9943761348
 O       -10.3575925943       15.4181040845       -0.9003380328
 C        -7.8076982956       15.5255106494       -0.9142506217
 C        -7.2667211182       15.3941020716       -2.4292388623
 O        -6.3085028871       14.7567158331       -2.6980278975
 C        -8.2425301490       16.1601856315       -3.4649213353
 C        -8.0781580316       16.9871667157       -0.3628456688
 C        -6.9215713369       14.7157125115        0.0052463537
 C       -13.1063035084       11.6505899031       -2.7257727696
 C       -12.9430232913        9.8943273718       -0.7809088945
 C       -12.6470117697        4.1064466725       -2.4529043594
 C       -12.9225965449        5.4402023318       -0.4119586880
 C        -7.7375820165        1.7300302348        0.8097962213
 C        -8.8779825501        0.4438573136       -0.9413253111
 C        -7.6444449599       -4.8596277483        4.8061938921
 C        -5.8975840332       -5.1370275992        3.1151882303
 C       -12.9742095474       -4.6068908433       -1.3778106142
 C       -11.9126299526       -6.8826075827       -1.1118604242
 H        -8.5347516001       -5.2808351705       -2.1156791638
 H        -9.4567302510       -6.6956813725       -2.1578011230
 H        -8.9417550764       -6.1369234864       -0.8028431053
 H       -10.0266895230       -6.6193536872        0.8181972084
 H       -11.1537642854       -6.9574018241        1.9699458919
 H        -9.7694100536       -6.0558129032        3.5052458765
 H       -10.3482677762       -4.3259025455        2.9150565407
 H        -6.8750241854       -2.9647079286        1.1848160441
 H        -5.6230636180       -2.2929096368        2.1900569903
 H        -6.4356666628       -0.3836159040        1.1075821191
 H        -7.0187678808       -0.1909528996        2.6144621291
 H        -9.6882536369        3.0056010923        1.7481928150
 H       -10.9991954948        2.0734209683        2.6313687042
 H       -11.8884382782        4.0465746715        1.4960430932
 H       -12.5533068621        2.6155050524        0.7123576705
 H       -12.4151263862        7.1167856117       -3.2067608355
 H       -10.9028518671        6.6239859418       -3.8078199850
 H        -9.7550357470        8.4008696842       -2.9613494973
 H       -10.6505744693        8.4320361462       -1.3165136001
 H       -11.3788426161       13.6107398091       -1.6409277025
 H       -10.4434493626       13.0723125170       -2.8762106743
 H        -8.3180397070       12.9448717463       -1.5815476838
 H        -9.0643358677       13.0817537749       -0.0640367631
 H        -7.6412989084       16.9474089193       -3.9927601749
 H        -9.0869667365       16.4436060219       -2.8211910733
 H        -8.7441133051       15.3935935161       -4.0101022557
 H        -8.2330788971       16.9755185924        0.6760690037
 H        -8.9378069331       17.3724269530       -0.9665755837
 H        -7.3318685062       17.6247747180       -0.6798394957
 H        -5.9225654933       15.1735118688        0.0632938910
 H        -6.8655061037       13.7134708289       -0.2893834324
 H        -7.2227657209       14.8271946655        1.0453808800
 H       -12.5713408204       12.5901031072       -2.9929654828
 H       -14.0013751956       12.0564693249       -2.2143694466
 H       -13.5112691068       11.1229613188       -3.5784980775
 H       -13.6883818994       10.6413692460       -0.5311284891
 H       -12.2813392009        9.7944224107        0.0566361652
 H       -13.2221575517        8.9191666208       -0.7970563781
 H       -11.9793548939        4.0932353563       -3.2778759791
 H       -13.5616507234        4.6647912976       -2.6715511513
 H       -12.8831174123        3.1298507743       -2.2300869223
 H       -13.2820866059        6.3779782694       -0.8056112147
 H       -12.6654744926        5.7331282248        0.5736900504
 H       -13.7686370679        4.8443234625       -0.2723005127
 H        -8.0253239021        2.6323036928        0.3730755272
 H        -6.9828220740        1.3757654465        0.1910727512
 H        -7.2185331015        1.9826656352        1.6903723742
 H        -8.0414161432        0.8362679818       -1.4338591918
 H        -9.5094291510        1.1958071546       -1.3598926532
 H        -9.1589836372       -0.4810912006       -1.2957225832
 H        -7.0426339930       -4.2915020765        5.5006682432
 H        -7.5990340055       -5.9350875439        5.1681777887
 H        -8.7187489685       -4.6759433937        4.9576890045
 H        -5.7793799055       -6.2220194800        3.4567638586
 H        -5.1653925944       -4.4787586573        3.4437029356
 H        -5.8221649661       -5.1374760568        2.0166743990
 H       -13.9235618689       -5.1126705585       -1.1098630863
 H       -13.0101281419       -4.3862270216       -2.4278992024
 H       -13.0258707765       -3.6287154452       -0.8729600100
 H       -11.0479333697       -7.3799650616       -0.6986355966
 H       -12.0684149573       -7.1447372738       -2.1186043186
 H       -12.8001215711       -7.1584166240       -0.5438277747
 Na      -11.2411702448       -1.9853576566        0.2985084900
