117

 C        -9.1415179771       -5.6419988083       -1.7387817443
 C       -10.2906676614       -4.8490107434       -1.2251588833
 O       -10.1646596004       -3.6621125700       -1.2098612046
 C       -11.5923568763       -5.4829168208       -0.6516625318
 C       -11.4217180568       -5.1066152502        0.9456846190
 O       -12.0260180041       -4.1458639345        1.3281544455
 C       -10.9581731582       -6.2769867751        1.9142424722
 C       -10.1746497182       -5.6843683825        3.0769493871
 C        -8.8345196801       -4.9535781173        2.5336502628
 O        -8.6162096638       -4.7527078312        1.3641745081
 C        -7.6733569513       -4.5738115780        3.6063349201
 C        -7.5344695704       -2.9094559348        3.4741120307
 O        -7.9428009606       -2.2107695611        4.3592219311
 C        -6.6515375413       -2.3843909036        2.2641002404
 C        -6.9127045591       -0.9081663609        1.9967784562
 C        -8.3053173404       -0.7979436184        1.0630374779
 O        -8.9818170290       -1.8360398282        0.7868969192
 C        -8.6697583915        0.6745266113        0.4994513951
 C       -10.0891946717        0.9682560922        0.9399273145
 O       -10.9684637781        0.1416724189        0.8585676637
 C       -10.2774407712        2.4889142291        1.3672851475
 C       -11.4798990440        3.2746364684        0.9378284943
 C       -11.3114736528        3.8208242381       -0.4626291412
 O       -10.4303779098        3.2991261680       -1.1212797249
 C       -12.1468204553        4.9648507032       -1.1672904557
 C       -11.0715510159        5.9823940946       -1.6573691386
 O        -9.9172725336        5.6519692682       -1.8510271934
 C       -11.6484352786        7.1847756314       -2.2645831956
 C       -10.6056413580        8.3945983515       -2.4109297244
 C       -11.4770212681        9.5365121809       -2.9507977483
 O       -11.5168051399        9.5923108096       -4.2059547928
 C       -12.1872341077       10.6137000045       -2.0708689632
 C       -10.8038283766       11.4894112150       -1.3162298257
 O       -10.2028950763       10.9422808907       -0.3376812403
 C       -10.5049822841       12.9162688039       -1.5618110345
 C        -9.1129109429       13.4089840324       -1.3568970280
 C        -9.0739859485       14.9655537090       -1.1093751454
 O       -10.0764913918       15.6310535588       -0.9386813995
 C        -7.5607248862       15.5787436646       -1.1483606985
 C        -7.1558420116       15.5050186271       -2.7675378768
 O        -6.2319146978       14.8546021302       -3.0933682085
 C        -8.1661455302       16.0511245544       -3.7581567053
 C        -7.5999307853       17.1067462520       -0.6631234161
 C        -6.5250116929       14.9183750214       -0.2339093672
 C       -12.9607555166       11.5789248925       -3.0270631151
 C       -13.0051568920       10.1384900385       -0.8944586722
 C       -12.6805099159        4.3107907246       -2.4933268076
 C       -13.2988411892        5.5213113151       -0.3654645016
 C        -7.4886872653        1.6600637520        0.6134949198
 C        -8.6062742344        0.3979400964       -1.1244736077
 C        -8.2398104297       -4.8536804224        4.9465194081
 C        -6.5205344889       -5.4027325462        3.0632373869
 C       -12.7570291369       -4.6211529392       -1.2046154001
 C       -11.6016825412       -6.9171009908       -0.9693032853
 H        -8.4177393206       -5.0532127630       -2.2762242701
 H        -9.3407745629       -6.5389153426       -2.3952910577
 H        -8.6306375370       -6.2697493157       -0.9237761085
 H       -10.4699376500       -7.0166207538        1.4152233145
 H       -11.8244441798       -6.8304563327        2.2036905499
 H        -9.7030871936       -6.4040128848        3.8607229169
 H       -10.6647378115       -4.7559147255        3.4588588279
 H        -6.9981973861       -2.9100698870        1.3708667041
 H        -5.5466350427       -2.5272743338        2.3362502707
 H        -6.1596938790       -0.3933006078        1.3696871644
 H        -7.0121110768       -0.2439771656        2.8641267745
 H        -9.3208858571        2.9859333791        0.8281939372
 H       -10.3795326339        2.4823832127        2.5022541396
 H       -11.5970222381        4.1933401103        1.4587462861
 H       -12.4613453867        2.7149060234        1.1209010010
 H       -12.4597033299        7.5261260046       -1.6499363714
 H       -12.1871533271        6.9145128958       -3.1055267116
 H        -9.9907340399        8.0757571517       -3.2355319053
 H       -10.1006140208        8.7344078020       -1.5266130150
 H       -11.1693137783       13.4727322932       -0.8712258277
 H       -10.9862548174       13.3453363182       -2.4782745158
 H        -8.5118785916       13.3038527400       -2.3270596223
 H        -8.6387648367       12.7424947095       -0.5849885012
 H        -7.9299936128       15.4252550852       -4.5799818332
 H        -7.9465028023       17.1087725965       -3.8402167105
 H        -9.0973772874       15.9966532389       -3.3046701006
 H        -8.4958591975       17.1773257999       -0.0134705565
 H        -7.6468537473       17.7475835450       -1.5811659040
 H        -6.7587959476       17.3583939614       -0.1503580805
 H        -5.4826317665       15.4844961877       -0.3741510526
 H        -6.2968387523       13.8792588175       -0.4998601963
 H        -6.8415544652       14.8892179359        0.8197057276
 H       -13.5007330762       12.3596469734       -2.4261428206
 H       -13.7599712107       11.1993498003       -3.5764432134
 H       -12.3038468756       11.9004443296       -3.8229240284
 H       -13.3146036812       10.9609702388       -0.2358240214
 H       -12.6241287523        9.2508416617       -0.3574932086
 H       -13.8696317201        9.5480936272       -1.3115148804
 H       -11.8388260359        3.7365728422       -2.8658870438
 H       -12.9279610932        5.1446582153       -3.2548309510
 H       -13.5438485685        3.6679094070       -2.2602930392
 H       -14.2089158760        5.9213002756       -0.7865606941
 H       -12.8885830328        6.3581509189        0.2570266715
 H       -13.7602183539        4.9003785874        0.4534007945
 H        -7.8147482038        2.6112757506        0.0663039923
 H        -6.4899237727        1.3927701192        0.2232911115
 H        -7.3878716070        2.0879194819        1.6835332134
 H        -9.3073216309        0.9182872711       -1.8510384025
 H        -8.8958160858       -0.6414514184       -1.3961830153
 H        -7.5468984987        0.3861988579       -1.3541130479
 H        -7.5236576884       -4.6907521575        5.7110625342
 H        -8.5027277432       -5.9323373312        5.0720048915
 H        -9.0815562921       -4.2835382093        5.2446218440
 H        -6.5581553748       -5.2298218010        1.9037049400
 H        -6.6673714874       -6.3833104384        3.3844014065
 H        -5.5732985630       -5.2214924857        3.5653493681
 H       -13.3584885558       -4.1985258418       -0.3984717148
 H       -13.4327330495       -5.2070572787       -1.8656795696
 H       -12.4305538209       -3.8378335245       -1.9064895012
 H       -10.6833990592       -7.3034079105       -0.4174870639
 H       -11.5070727587       -6.9884325256       -2.0388031943
 H       -12.5234040977       -7.4859207914       -0.7790547311
 Na      -11.0696632250       -2.0107534509       -0.1168794815
