117

 C        -8.9605561972       -5.7068929330       -1.7919049718
 C       -10.0346869761       -4.8198412820       -1.3492833001
 O        -9.9841334181       -3.6398320211       -1.2914080158
 C       -11.3651601605       -5.4009042104       -0.6368540847
 C       -11.3063831246       -4.9400158060        0.9615577719
 O       -11.5443990519       -3.7932583813        1.3350744679
 C       -11.4393137851       -5.9696425906        2.0868932895
 C       -10.5463607464       -5.6907801160        3.3428943360
 C        -9.1998252990       -5.0509860435        2.8492035512
 O        -9.1843503901       -4.7067858598        1.6791683216
 C        -8.0410682160       -4.5805714581        3.8026093361
 C        -7.8158801623       -3.0247534203        3.4855424089
 O        -8.4653141154       -2.2263000192        4.0931378065
 C        -6.8455114577       -2.5411139017        2.3660581957
 C        -7.0499655087       -1.0103252473        1.9417516893
 C        -8.2122470461       -0.8610276932        0.9809314043
 O        -8.9726306027       -1.8460908192        0.8532365336
 C        -8.4475881740        0.4521085605        0.3384576831
 C        -9.8192808008        1.1615213179        0.8776544804
 O       -10.7837560933        0.4240843016        0.8315348159
 C       -10.0765653996        2.5497758498        1.4450383203
 C       -11.3701690791        3.0817091478        0.8517573019
 C       -11.1429571621        3.4567973379       -0.6083405467
 O       -10.4828640448        2.7434160749       -1.3698897754
 C       -12.2104728741        4.6649848095       -1.1897872035
 C       -11.1497170588        5.9412415868       -1.6859843408
 O       -10.0905845092        5.6677941762       -2.1928754523
 C       -11.7152519017        7.3746527412       -1.4948359856
 C       -10.8801347843        8.5576024078       -2.0942387258
 C       -11.5183116700        9.6095802328       -3.0513230028
 O       -11.4859869600        9.4203395850       -4.2709717344
 C       -12.1217982337       10.9197945132       -2.2145908214
 C       -10.8577333201       11.6027296779       -1.4308614374
 O       -10.3311603998       11.0487396898       -0.4301732867
 C       -10.3747005480       13.0197824311       -1.7119502098
 C        -9.0322443134       13.4026089416       -1.1157759514
 C        -8.9154660193       14.9001468013       -1.0879694108
 O        -9.8399471706       15.6301756253       -0.8131703655
 C        -7.4953635676       15.6102054497       -1.5187711015
 C        -7.0859400234       15.4470533837       -3.0709487957
 O        -6.0401728974       15.0300252201       -3.3985362726
 C        -7.8632857350       16.1350213082       -4.1851932892
 C        -7.3282047077       17.0369167442       -1.0469920856
 C        -6.3240616760       14.7872479357       -0.7121865632
 C       -12.9633156396       12.0180625371       -2.9884770033
 C       -13.0292797732       10.2199134371       -1.1047646887
 C       -13.0405727813        4.1297448045       -2.3851527819
 C       -13.1012291963        5.1576411215       -0.0565373720
 C        -7.3181466990        1.5896273217        0.5799639108
 C        -8.5944249368        0.3234928113       -1.1474937920
 C        -8.5563807753       -4.7870313683        5.1727928383
 C        -6.8148219273       -5.4257097076        3.3592574935
 C       -12.5641015418       -4.7850741762       -1.2967232838
 C       -11.4167672582       -6.9296186552       -0.6704802623
 H        -7.9673529283       -5.3042373960       -2.1065764806
 H        -9.2708366459       -6.1307694836       -2.8262794990
 H        -8.6926249291       -6.7053497331       -1.1910823918
 H       -11.3438731232       -7.0009082966        1.7002456028
 H       -12.5581951418       -5.9470493339        2.4929525952
 H       -10.2580696885       -6.5508639424        3.9889502768
 H       -10.8711037920       -4.8955161157        3.8609094258
 H        -6.9707212347       -3.1231851362        1.4314138091
 H        -5.8154907376       -2.5902809084        2.6505446454
 H        -6.2515240287       -0.4962519471        1.3322612919
 H        -7.2572603478       -0.3319625530        2.8327007651
 H        -9.2938920381        3.3411062780        1.2125928889
 H       -10.4368153669        2.4195939493        2.3793500483
 H       -11.5608508236        3.8732531512        1.4684756467
 H       -12.3440507341        2.5371268869        0.8004960423
 H       -11.8173835367        7.6411405749       -0.4105340156
 H       -12.7870764452        7.3241147175       -1.8832918081
 H       -10.0479986541        8.1774012878       -2.7817091740
 H       -10.4964324416        9.1280376273       -1.2353175217
 H       -11.2187839347       13.6032613901       -1.3213712224
 H       -10.2587198159       13.4778536955       -2.7533739053
 H        -8.2844053662       12.9874091677       -1.7806688449
 H        -9.0127964102       13.0458221481       -0.1049209932
 H        -8.6830862214       15.4492791238       -4.5035372277
 H        -7.0242275946       16.4117575623       -4.8925005228
 H        -8.3014458328       17.0757548586       -3.7465354152
 H        -8.2765037845       17.1434546334       -0.3613166137
 H        -7.5535374229       17.6902373434       -1.9471782702
 H        -6.4434419536       17.1973174942       -0.4901243512
 H        -5.2646656345       15.1374663926       -1.0064985012
 H        -6.2641900003       13.7194265201       -0.8256325506
 H        -6.6322805771       14.9885444716        0.2796992648
 H       -13.9698500689       12.2787648598       -2.5218434923
 H       -13.2705780538       11.9598517747       -4.0234075319
 H       -12.2700850375       12.8822587366       -3.0114328469
 H       -13.7267898503       10.7385851793       -0.5252641102
 H       -12.3511835383        9.9825646884       -0.2624396867
 H       -13.4637603968        9.2136293790       -1.4809193319
 H       -12.4420828512        3.7107633222       -3.1989488576
 H       -13.7026664423        4.8810355171       -2.9159708929
 H       -13.7635832117        3.3942830594       -1.9246539443
 H       -13.6402533388        6.0085525204       -0.2428100533
 H       -12.6204775338        5.2880858918        0.8993957889
 H       -13.9704099585        4.5022222249        0.1278209371
 H        -7.5021381500        2.4648484566       -0.0187078004
 H        -6.4428423106        1.3002276071        0.0827236689
 H        -7.1415718772        1.8712083036        1.5890198290
 H        -9.5069946984        0.8336112641       -1.6545835729
 H        -8.7737349113       -0.7229191588       -1.3975768508
 H        -7.7777764513        0.7649804201       -1.7394086361
 H        -7.9240740455       -4.4507684441        5.9942991935
 H        -8.9401213050       -5.8015876995        5.4230951880
 H        -9.3851682246       -4.0925136377        5.2370714878
 H        -5.8397286942       -4.8107693630        3.6317460204
 H        -7.0398479105       -5.4798716721        2.3213499872
 H        -6.9127444798       -6.4578889669        3.6480224036
 H       -12.3768460378       -3.7387579860       -1.2058433282
 H       -13.5014305381       -4.9707107318       -0.7367882124
 H       -12.7273787989       -5.0339555674       -2.3375542840
 H       -10.5565371763       -7.3077239498       -0.0989092245
 H       -11.5173048963       -7.3141778158       -1.6724211472
 H       -12.2478100257       -7.3661147824       -0.1751490743
 Na      -10.9964412282       -1.9527851692        0.2887111625
