117

 C        -8.8497413864       -5.5402393290       -1.3126453443
 C       -10.0304604547       -4.6353282279       -1.0354344171
 O       -10.0372272529       -3.4035915813       -1.3075239753
 C       -11.3222568587       -5.3350636909       -0.4234799014
 C       -11.6877494429       -4.6234413854        0.9331736690
 O       -11.9892275933       -3.4285193337        1.0215979538
 C       -11.7817872104       -5.4747435709        2.1716771915
 C       -10.9754953521       -4.9254261967        3.3156870812
 C        -9.4631530485       -5.0990805275        3.0469194201
 O        -9.1097998040       -5.7520446682        2.1037198060
 C        -8.4207997072       -4.5249399725        4.1477361285
 C        -8.1482051790       -2.9291515880        3.6769319015
 O        -9.0139247777       -2.1012458042        3.5826777063
 C        -6.7449418108       -2.5772062385        3.0301682495
 C        -6.9191338798       -1.2644842529        2.2316715997
 C        -8.0931096339       -1.0584892394        1.1807832596
 O        -9.0072172675       -1.8314943804        0.9464920920
 C        -8.0724975030        0.2156594384        0.3584989566
 C        -9.5605534917        1.0360149416        0.5609750848
 O       -10.6497142656        0.5278100602        0.4751412404
 C        -9.4120372828        2.5611579818        1.0447719784
 C       -10.8462651955        3.3056231378        0.9094540978
 C       -11.3581643432        3.5412002441       -0.6132972127
 O       -10.8382835740        2.8236963964       -1.4307628274
 C       -12.3096932398        4.6193345771       -1.0633417891
 C       -11.4027056214        5.8949166148       -1.4868323511
 O       -10.4213796519        5.7243684390       -2.1458398275
 C       -12.1122553342        7.3121699608       -1.3167715279
 C       -11.1358948155        8.5508752169       -1.4018583306
 C       -11.6149737063        9.5396827812       -2.6049431353
 O       -11.4899311929        9.1593128090       -3.7044074415
 C       -11.9564916400       11.0019164373       -2.1854931090
 C       -10.5942159783       11.6898023842       -1.5816068419
 O       -10.2374104884       11.3385018664       -0.4520481014
 C       -10.1329815898       12.9783495443       -2.1442833645
 C        -8.7227123762       13.3325411723       -1.6096665751
 C        -8.5396707764       14.8869824541       -1.5741334974
 O        -9.6324350214       15.4642113861       -1.5522627267
 C        -7.1856752797       15.4344551484       -1.6912009955
 C        -7.0200935134       15.2140169103       -3.3496516487
 O        -6.0511587274       14.7070102979       -3.9168058586
 C        -8.1361607070       15.9683474061       -4.2830188147
 C        -6.8704091619       16.9956132596       -1.5042684323
 C        -6.1288038007       14.4966647318       -0.9721083621
 C       -12.6480276226       11.8782696475       -3.2801434481
 C       -12.7857904223       10.8968161401       -0.8882993289
 C       -13.1018587678        4.0686815177       -2.4024110969
 C       -13.4979566468        4.9758073613       -0.0600420105
 C        -6.7497129125        1.0133715470        0.5237694092
 C        -8.3671475142       -0.0753318313       -1.2031138177
 C        -9.0151487769       -4.3741945871        5.5167724271
 C        -7.1314591732       -5.4207001186        4.1988707521
 C       -12.4889395210       -4.8358469687       -1.4286831559
 C       -11.3072069645       -6.8498076135       -0.3405815564
 H        -8.1145792951       -5.2186600245       -2.0949804874
 H        -9.0338147163       -6.5688456219       -1.9206451523
 H        -8.0709774782       -5.6750989601       -0.4723377002
 H       -11.3926741856       -6.4992474449        1.9757289500
 H       -12.7807954924       -5.4145817897        2.5355606651
 H       -11.0464876348       -5.4541368000        4.2646064133
 H       -11.2016516927       -3.7880664718        3.6770633703
 H        -6.3835162932       -3.3745746630        2.4086385026
 H        -5.9014718764       -2.2801962188        3.6891858148
 H        -5.9697953242       -0.8455433434        1.7576056018
 H        -7.1851120725       -0.6055452971        3.1102150446
 H        -8.6668561774        2.9925277775        0.4007896930
 H        -9.0950686612        2.3543153283        2.1775066228
 H       -10.9670450669        4.2918014370        1.4056412470
 H       -11.4881836286        2.6435419720        1.4290028950
 H       -12.5190999801        7.1284285787       -0.2707709929
 H       -12.8207109214        7.4109066132       -2.1603311583
 H       -10.2079932661        8.0975221312       -1.8544718332
 H       -10.9058721283        9.0432587271       -0.4030780394
 H       -10.6471304408       13.8692724068       -1.6912380271
 H       -10.0582368983       13.1311128044       -3.2476529218
 H        -7.9464823687       12.9031576315       -2.2161243875
 H        -8.8065187913       12.9925204297       -0.6026395355
 H        -9.0774511353       15.9384092769       -3.6747403427
 H        -8.0959212452       15.4572349516       -5.2491396462
 H        -7.9891392750       17.0614733642       -4.2699283388
 H        -6.3993317094       17.0249909941       -0.5485554057
 H        -7.8131051989       17.5410970564       -1.3272636777
 H        -6.0776708669       17.2339811209       -2.3424873202
 H        -5.1830891257       14.9010617743       -1.1159818997
 H        -6.2814391216       13.5423068624       -1.5385382365
 H        -6.3087979640       14.3578376421        0.1349665908
 H       -12.5556988243       12.9600306062       -3.1623966741
 H       -13.7163901522       11.6263142819       -3.4396005009
 H       -12.1252630010       11.8158875414       -4.2360631552
 H       -13.3903945718       11.7827822955       -0.4411020566
 H       -12.3393885889       10.4208003784       -0.0102385522
 H       -13.6120486482       10.3354998892       -1.1867723302
 H       -12.5492649129        3.2324483637       -2.9671968560
 H       -13.3376275701        4.8643328312       -3.1339341023
 H       -14.0574850331        3.5633661620       -2.1468166974
 H       -14.3250992002        5.5238119382       -0.5894443960
 H       -13.1624311587        5.7174090300        0.6698605226
 H       -13.7743409386        4.1639079678        0.5404263552
 H        -7.0245883008        1.8516267851       -0.0585573222
 H        -6.0525139565        0.3370797437       -0.0228757627
 H        -6.2306154392        1.2197061720        1.4473055150
 H        -7.3934389344       -0.1622041908       -1.6554231544
 H        -9.0949794222        0.6714652584       -1.5552779705
 H        -8.8448822640       -1.0444551242       -1.5161890426
 H        -8.5795044101       -3.4861223204        5.9835376531
 H        -8.8411560161       -5.2665124224        6.1628143582
 H       -10.1162087660       -4.2420530640        5.5032908986
 H        -7.4449590736       -6.2148478261        3.6600291774
 H        -6.9210578839       -5.5668862198        5.2698896492
 H        -6.2417111154       -4.9113808135        3.7160497936
 H       -12.6426837344       -5.6911526067       -2.0933067270
 H       -12.3598885829       -3.9061334337       -1.9365718391
 H       -13.4217647892       -4.8773094725       -0.8713880141
 H       -10.5814455221       -7.3643497063        0.2593506663
 H       -11.0707342627       -7.2380333160       -1.3044514038
 H       -12.3064159304       -7.1037564443       -0.0176462645
 Na      -11.0547352324       -1.6855307832       -0.1407259207
