117

 C        -4.8283541065       -1.0565519492        9.3176016266
 C        -6.2934406481       -0.8736790880        9.2120153560
 O        -6.7435580302       -0.0939549189       10.0330518951
 C        -7.1937528200       -1.4251028074        8.0457633324
 C        -6.8991612922       -0.7200571419        6.5908566430
 O        -6.5975620689       -1.3473757560        5.6167629935
 C        -7.0239886891        0.8632600168        6.5360569393
 C        -5.8289148173        1.6751208016        5.8980345622
 C        -6.4566801886        2.6739384892        4.8771742776
 O        -7.5801406585        2.6864241689        4.4615415066
 C        -5.4474175335        3.9727260382        4.3670159245
 C        -5.3477932578        3.8007237802        2.8433709486
 O        -4.4409465015        3.1411527337        2.3101068745
 C        -6.4098964963        4.4565449418        1.9205082171
 C        -6.2090655598        4.3503793307        0.3474668690
 C        -7.4852877693        3.8917087626       -0.2986711632
 O        -8.0583607305        4.5922323844       -1.1989406860
 C        -8.1785467735        2.5253779479        0.0903223201
 C        -9.6249514267        2.8897568281        0.7429812079
 O        -9.7184408472        3.5904072574        1.7216050995
 C       -10.8351487686        2.1899772419        0.1012033336
 C       -12.1102340088        2.7882698148        0.6040196086
 C       -12.3993380580        4.1464153482       -0.0433698629
 O       -11.5515525617        4.9650890301       -0.2517085874
 C       -13.7713605172        4.5324107748       -0.7203521062
 C       -13.7456086573        4.3122780739       -2.3506865709
 O       -12.6057452812        4.1033813428       -2.7752706571
 C       -14.9313537546        4.2725086480       -3.3022071790
 C       -14.7382216934        4.9772211039       -4.6704267900
 C       -15.1202498205        6.4375251799       -4.5182245745
 O       -15.5598903283        6.9432464871       -3.4704529499
 C       -15.1518676247        7.2595855485       -5.8646492531
 C       -13.8378579845        6.8493034942       -6.4726320974
 O       -13.7639276509        6.2762314832       -7.5421291279
 C       -12.3724358173        7.3767481721       -5.8855146952
 C       -11.1945270338        6.5269420143       -6.4097629725
 C       -10.5109709539        5.8387050350       -5.1332525097
 O       -10.8981931594        6.1410261356       -4.0059328580
 C        -9.1444124903        5.0647647793       -5.4239657350
 C        -9.2711011246        3.5592942769       -5.0132891494
 O        -9.8196981975        3.1127541698       -3.9697625396
 C        -8.4647338440        2.5787836203       -5.7830158946
 C        -8.5875487950        5.2644248347       -6.8521162690
 C        -8.0241445188        5.6386747868       -4.5106452522
 C       -16.3898008604        6.7697300503       -6.6906813150
 C       -15.2502968724        8.7996887412       -5.5904516761
 C       -14.8658772397        3.6442146556       -0.2236717934
 C       -14.1413671991        6.0128085391       -0.4771668157
 C        -8.3876448130        1.5128834539       -1.1797805797
 C        -7.3815973097        1.6302930358        1.0239749274
 C        -6.1136846953        5.2581492987        4.9281921035
 C        -3.9877597324        3.8877165398        4.9499942879
 C        -6.7316568808       -2.9285873348        7.8294008540
 C        -8.6533418153       -1.1251603789        8.4195527289
 H        -4.4433930742       -0.1793880676        9.8259056136
 H        -4.2812060928       -1.0559903798        8.3272395705
 H        -4.5854190807       -1.9619470886        9.7607760845
 H        -7.4620152531        1.3329670912        7.4329161055
 H        -7.8611104974        0.9932531700        5.7114845206
 H        -5.1184241925        0.9704206584        5.4678133650
 H        -5.3964998943        2.2500069655        6.7493926893
 H        -6.3824493358        5.5000584832        2.2104603743
 H        -7.4687398156        4.0987042529        2.1602134291
 H        -5.3642470225        3.8116562986        0.0426867546
 H        -5.9833938289        5.3534871835       -0.0186361643
 H       -10.8692606355        1.0896191921        0.2948568831
 H       -10.7911984052        2.2218645965       -0.9828171474
 H       -12.0472124632        2.9350216862        1.6949731329
 H       -12.9069257190        2.0426366650        0.3856468082
 H       -15.8612441086        4.6929334751       -2.7524922237
 H       -15.0137839916        3.1847175440       -3.4916824171
 H       -15.3178307845        4.5038873764       -5.4368858450
 H       -13.7626582607        4.8684526296       -4.9911757317
 H       -12.4337353469        7.3573198188       -4.7608778874
 H       -12.0238851772        8.3902980524       -6.2026780232
 H       -10.4551212543        7.3026174366       -6.7796009584
 H       -11.4770142832        5.7244120700       -7.0741376428
 H        -7.5371854504        3.0965655734       -6.1259539141
 H        -9.0598114745        2.4293216527       -6.7160137281
 H        -8.4663455731        1.6771222772       -5.2666827859
 H        -8.5863763641        6.3024020675       -7.0398759912
 H        -9.1193268821        4.8242317719       -7.6435258910
 H        -7.5869667438        4.9435390680       -6.8092490068
 H        -8.0268652834        5.0561745858       -3.5388768154
 H        -8.0376602719        6.7642292133       -4.3844730369
 H        -7.1568070795        5.2551362770       -4.8995207027
 H       -16.4012014897        5.7229790642       -6.9382971117
 H       -16.2586644203        7.2335541102       -7.6716304246
 H       -17.2716356504        7.1023745592       -6.2891053666
 H       -15.4026248024        9.4093109433       -6.5848041602
 H       -14.3478656140        9.1279971997       -5.1376287308
 H       -16.1474169414        9.0137304223       -4.9833511465
 H       -14.5838770059        3.2493717049        0.7288674323
 H       -14.8259707749        2.7618417650       -0.8786602342
 H       -15.7970893840        4.0582808985       -0.1157726732
 H       -14.6698601564        6.1075483326        0.4461781383
 H       -14.7432440636        6.4797125061       -1.2106052469
 H       -13.2530829209        6.5935582628       -0.4091935059
 H        -8.8807392957        0.6612099561       -0.7944130983
 H        -7.3689015040        1.2614897522       -1.5578408639
 H        -9.0402637849        1.9214816717       -1.9599856710
 H        -7.0772014384        2.1462313076        1.9033097187
 H        -6.6856201633        1.1468161654        0.4389492241
 H        -8.1044271094        0.8405721941        1.3797337668
 H        -6.2878186019        5.0536084860        6.0148998538
 H        -7.0528869174        5.5361260205        4.4942050198
 H        -5.3758148318        6.0400111036        4.7450463960
 H        -3.8473011314        3.8129740376        6.0054781026
 H        -3.4873546932        4.7315345968        4.5760905527
 H        -3.4866504335        3.0215611968        4.5699666085
 H        -5.6751944201       -2.9312925380        7.5101912126
 H        -7.2551318297       -3.3776930710        7.0162575245
 H        -6.9729347696       -3.4664989267        8.7565264647
 H        -9.2308860047       -0.4103250455        7.8289943551
 H        -8.7427074657       -0.7234539758        9.3876220978
 H        -9.1395631681       -2.0951689677        8.3970453820
 Na      -10.2802366835        4.6591171297       -2.3049705491
