117

 C        -8.8847940877       -5.2928280129       -0.4497664398
 C       -10.1372103310       -4.6420578874       -0.7961999092
 O        -9.9963828076       -3.5605613874       -1.3652277733
 C       -11.5498629057       -5.1509713568       -0.4204180831
 C       -11.8884462497       -4.4300705344        0.8693461209
 O       -11.9270792810       -3.2690748127        0.7601804339
 C       -11.9829163308       -5.1654255376        2.2200109841
 C       -11.2522770662       -4.3024502572        3.2162146546
 C        -9.7871945631       -4.9154779661        3.5151343234
 O        -9.3295287795       -5.8986763951        2.9105095250
 C        -8.7968504003       -4.1982227624        4.3825674945
 C        -8.5561727068       -2.7516205632        3.8448646657
 O        -9.2985104438       -1.8488656596        4.2053268660
 C        -7.3356975063       -2.5096434130        2.8885518476
 C        -7.3716551696       -1.0811143378        2.3325359348
 C        -8.3158591627       -0.9298913517        1.1829817352
 O        -9.2111245087       -1.7465662734        1.1624466516
 C        -8.0116741428        0.2531380991        0.1564137803
 C        -9.1818974981        1.2072024263        0.2629598364
 O       -10.2894184315        0.6606242722        0.2041367594
 C        -8.9282007885        2.6733522248        0.3261554137
 C       -10.2989761503        3.3517828830        0.5259573930
 C       -11.1552793501        3.3442829581       -0.7778590742
 O       -10.8368553423        2.6369188651       -1.7025163227
 C       -12.3521858350        4.5125017806       -0.8983934073
 C       -11.5480871633        5.7960784915       -0.8819197810
 O       -10.3330465803        5.8520657605       -0.7835659242
 C       -12.2514957004        7.1035138008       -1.2617610331
 C       -11.5750399094        8.4050801969       -1.0440443506
 C       -11.8475826468        9.3615323387       -2.1807545110
 O       -11.7798268534        8.8804227596       -3.3578469072
 C       -11.8899753695       10.9471775875       -2.0771152015
 C       -10.4503787171       11.3801608407       -1.6166681150
 O       -10.0563396485       10.8667153269       -0.6049962028
 C        -9.9002274866       12.6715088195       -2.1359716033
 C        -8.4762355989       13.0955365396       -1.6443518015
 C        -8.2916075525       14.6760948899       -1.9086558921
 O        -9.3091956148       15.2669740220       -1.7463261285
 C        -6.7954411263       15.3437833148       -2.3730658995
 C        -6.8224881399       15.1751266890       -3.9408483159
 O        -6.3677923074       14.1738028441       -4.4132801273
 C        -7.2378923404       16.2476166604       -4.9294312151
 C        -6.9183775565       16.9692395192       -2.0795925648
 C        -5.8219291482       14.4881885685       -1.5216024606
 C       -12.5063675872       11.6331917649       -3.3062716773
 C       -12.7333025935       11.2023637327       -0.7902648708
 C       -13.0534466444        4.2979221334       -2.2903606758
 C       -13.3808853706        4.3890755469        0.1745097690
 C        -6.5791579453        0.8265251398        0.4647782720
 C        -8.0626742729       -0.1599043576       -1.4401848170
 C        -9.5621160714       -4.2375832604        5.8909582670
 C        -7.4765411684       -4.9786490962        4.5137366819
 C       -12.5904863089       -4.7992077869       -1.6470702348
 C       -11.5725031549       -6.7506177151       -0.3345859828
 H        -7.9048293491       -4.6404131392       -0.4569808255
 H        -8.6631401889       -6.2052228502       -1.0246450494
 H        -8.8751852387       -5.5946935475        0.6327030671
 H       -11.4321714049       -6.0879016693        2.2067640734
 H       -12.9657244123       -5.2280706019        2.5920952767
 H       -11.7203453337       -4.0672971228        4.3253360157
 H       -11.0505647690       -3.2290399551        2.9377658002
 H        -7.3690991924       -3.1302811838        1.9697855697
 H        -6.3333036636       -2.7339918348        3.3166363230
 H        -6.3054917697       -0.7545999245        2.0690422935
 H        -7.8159165292       -0.3897417780        3.1189020975
 H        -8.1218400757        3.0080896769       -0.4436054547
 H        -8.4319735086        2.7861859693        1.3600649120
 H       -10.0325863228        4.3658436296        0.9061724479
 H       -10.7026849359        2.9723057584        1.4498147943
 H       -13.2010308784        6.9902677779       -0.7296507179
 H       -12.1098421481        6.9492969325       -2.3510359554
 H       -10.4678069990        8.2606993187       -1.0001254995
 H       -11.8327826812        8.6827530635        0.0061386773
 H       -10.5743890914       13.4218656630       -1.6215068252
 H        -9.8619265801       12.6280045895       -3.2239155998
 H        -7.7301914179       12.5885725743       -2.2259184567
 H        -8.4696370859       12.6132269263       -0.6852651148
 H        -8.1116917488       16.8185695417       -4.5737328010
 H        -7.3225742928       15.9168966397       -5.9923051236
 H        -6.3896137649       16.9661568944       -4.6873226585
 H        -7.5923872446       17.0632447923       -1.0919480649
 H        -7.3437340009       17.4637624688       -2.9739234969
 H        -5.9464233329       17.4306189346       -1.9925538160
 H        -4.7170489818       14.8806284087       -1.7397542939
 H        -5.9137356456       13.5109661690       -1.9854113959
 H        -6.0851998778       14.6434584727       -0.4883673092
 H       -12.3365853256       12.7131318802       -3.2913708282
 H       -13.5836856693       11.4366602719       -3.1676422836
 H       -12.3934956594       11.2802832455       -4.3424839228
 H       -13.6905129517       11.5658102819       -0.9689183924
 H       -12.2380489512       11.6748375113        0.0526192355
 H       -12.9462686832       10.1766567120       -0.2921682159
 H       -12.4592818328        4.5310535800       -3.1868697857
 H       -14.0089310932        4.9276376136       -2.3499340170
 H       -13.3524426811        3.2616416189       -2.5651921077
 H       -14.1517960328        5.1448122136        0.1427137460
 H       -12.7486529030        4.4940515015        1.0634733161
 H       -13.8485170195        3.3770046764        0.1464225398
 H        -6.4134620489        1.7620868440       -0.0987104287
 H        -5.8216551977        0.0615560110        0.4041520427
 H        -6.6669065403        1.0214328620        1.5138818058
 H        -9.0868524262       -0.4879456992       -1.7675648339
 H        -7.4410733586       -1.0989596188       -1.6417526513
 H        -7.7784758597        0.7837169157       -1.9832194538
 H        -8.8447708693       -4.3834535052        6.7678766430
 H       -10.2526157625       -5.0655098414        5.9567354163
 H       -10.1877833099       -3.3127049848        5.9410177678
 H        -6.9093430608       -4.9846297387        3.4417456990
 H        -7.8106565969       -5.9798750716        4.7774595772
 H        -6.8280078988       -4.5505975825        5.2385817636
 H       -12.0087723895       -4.6885258192       -2.5573736100
 H       -12.8628917725       -3.7638661476       -1.4128662750
 H       -13.4096767906       -5.5118361905       -1.6871174562
 H       -10.8625488363       -7.2036508577        0.3089941382
 H       -11.2676527259       -7.1898550122       -1.3089764879
 H       -12.5295039918       -7.1846521738       -0.1217752749
 Na      -10.7258630347       -1.6159483954       -0.6327463552
