117

 C        -8.8039192011       -5.3630926048       -0.2823871680
 C       -10.0681994004       -4.6322444336       -0.6898407627
 O       -10.1188871053       -3.5930062220       -1.2847384351
 C       -11.4628012154       -5.1890551563       -0.4201712547
 C       -11.9479306093       -4.4053747320        0.8829186819
 O       -12.0391373118       -3.2119931845        0.8779904778
 C       -12.1754406721       -5.1496460937        2.1251932127
 C       -11.2693331096       -4.2991643419        3.1936721304
 C        -9.8875654736       -4.7921809603        3.4524684795
 O        -9.6167237179       -5.8392860471        2.9260984348
 C        -8.8163086293       -4.1108972935        4.5608275307
 C        -8.4785420407       -2.6738483305        4.2425869645
 O        -9.2397733391       -1.7252950593        4.4482126869
 C        -7.3592863450       -2.4589851012        3.2464857314
 C        -7.3420407204       -1.1386941958        2.4651811076
 C        -8.2141624981       -1.1260819882        1.1057836374
 O        -9.2571923956       -1.7267209580        0.9172461176
 C        -7.9262587139        0.0494445089        0.1086959520
 C        -9.1397050134        1.0488622640        0.1488569622
 O       -10.2663372345        0.7076998670       -0.0235326016
 C        -9.0075236111        2.5849407030        0.3444828934
 C       -10.3922980005        3.2278784729        0.6305112456
 C       -11.1038249109        3.3865769999       -0.8005298198
 O       -10.9338521208        2.5334961662       -1.6464315472
 C       -12.0970700380        4.5080693696       -0.8724073810
 C       -11.4517158179        5.9311151405       -0.9334218998
 O       -10.3192677507        6.0930792567       -0.5228429499
 C       -12.4639705424        7.2005394819       -1.3274117255
 C       -11.6926014940        8.4647902781       -1.0411683332
 C       -11.8365543401        9.3964365843       -2.2070897697
 O       -11.8937969089        8.8220598277       -3.3504110666
 C       -11.9812503487       10.8912011915       -1.9627162789
 C       -10.3795551226       11.3149383360       -1.5183240030
 O        -9.7812082381       10.6978581221       -0.6029074125
 C        -9.8394795242       12.6060157119       -2.1907101155
 C        -8.3863211521       13.1254833029       -1.8055451265
 C        -8.3561849250       14.6386595985       -2.0644767114
 O        -9.2943576478       15.4193815282       -1.7814524952
 C        -7.0045555867       15.1825094906       -2.4244032007
 C        -6.6549205357       15.0847270009       -4.0658143233
 O        -6.4435351393       13.9735097923       -4.5030824337
 C        -6.9812300417       16.2454897792       -5.0914989139
 C        -6.9558954954       16.6883610095       -1.9410525649
 C        -5.8473987991       14.6026907283       -1.7562125340
 C       -12.5012655415       11.5995698000       -3.2296564202
 C       -12.7673488668       11.3949023982       -0.7675195960
 C       -12.9061924246        4.2622904351       -2.2627312379
 C       -13.2911378444        4.4148483688        0.2186509954
 C        -6.5317866255        0.7763478899        0.3960997177
 C        -7.9225203580       -0.2156818454       -1.4674331604
 C        -9.6792122560       -3.9400980674        5.8252266816
 C        -7.5480329400       -5.0424016399        4.4667768641
 C       -12.4940455844       -4.6234228900       -1.4760763021
 C       -11.5424901747       -6.7792828161       -0.5587878242
 H        -7.9617449271       -4.8223623989       -0.4244515503
 H        -8.6750522242       -6.3337422735       -0.7612542318
 H        -8.7999920982       -5.5833636836        0.7157407592
 H       -11.7487236178       -6.0668414650        2.0519397553
 H       -13.1901059134       -5.1226170531        2.4815206131
 H       -11.6325618365       -4.2548776749        4.1873247383
 H       -11.2023926765       -3.2412427729        3.0081952246
 H        -7.1522989502       -3.3185838583        2.4734735080
 H        -6.4359291753       -2.4308395162        3.8668851425
 H        -6.3058407388       -0.9878937923        2.1231040378
 H        -7.6532929211       -0.2924690522        3.1765453142
 H        -8.6330305527        2.8451753249       -0.7659989026
 H        -8.2619828505        2.9528112052        0.9595045356
 H       -10.2461923098        3.9944267119        1.3503916940
 H       -10.9099036756        2.4891540569        1.3821049185
 H       -13.2929925267        7.0304955019       -0.7257230921
 H       -12.4400084090        7.1474200011       -2.4289228480
 H       -10.6899574829        8.2524173078       -0.6638502169
 H       -12.2166074531        8.8627201266       -0.1895349335
 H       -10.4369217425       13.4435425197       -1.7537897386
 H        -9.8404761006       12.3408097595       -3.2682598558
 H        -7.5166736611       12.6198810845       -2.3156061192
 H        -8.2906656890       12.7671991649       -0.7515382167
 H        -7.9083951229       16.7254741179       -4.6877385116
 H        -7.1652474891       15.8523247306       -6.1324630433
 H        -6.2010041381       17.0461142533       -5.0639449368
 H        -6.9753973818       16.6911852063       -0.9134395030
 H        -7.6229700339       17.4118175542       -2.4920490293
 H        -5.9855679369       16.9931568190       -2.3202406965
 H        -4.8374173632       15.1289991143       -1.9624708547
 H        -5.7732140109       13.6006979100       -2.2347899101
 H        -6.1140881529       14.6597148695       -0.6550319941
 H       -12.5115563719       12.7332684605       -3.3796497678
 H       -13.5195493300       11.2348820411       -3.3173507894
 H       -12.1254182547       11.1058489543       -4.1210277519
 H       -13.5874964804       11.9666729183       -1.2278948057
 H       -12.1046382725       12.1362800597       -0.2322503059
 H       -13.2172890927       10.8408177654        0.1113687547
 H       -12.6693115569        5.0632859494       -3.0987733079
 H       -14.0475443663        4.4179504312       -2.1101646109
 H       -12.7506929267        3.3645506359       -2.9055663194
 H       -14.1300269983        4.9171212776       -0.2355672696
 H       -12.9306126591        4.9228671467        1.1357656604
 H       -13.6407792715        3.3485586875        0.4067854195
 H        -6.3412392835        1.5629354427       -0.4253422650
 H        -5.7904996723       -0.0434305829        0.3710091935
 H        -6.5504209798        1.1792406922        1.4887646457
 H        -8.7406997765        0.1426791639       -2.1481432750
 H        -7.9024823461       -1.4032336731       -1.5831067795
 H        -6.9562687982        0.2797654371       -1.7743218833
 H        -9.0393478097       -3.5819588026        6.6173721447
 H       -10.0980099873       -4.9004735658        6.2352962135
 H       -10.4924130718       -3.2645298921        5.5774246151
 H        -7.6828609718       -5.4461648597        3.4420259949
 H        -7.5888243385       -5.9075080471        5.1555085378
 H        -6.5873909809       -4.4693250112        4.4399346837
 H       -11.9596965296       -4.5477169567       -2.3594865529
 H       -12.6526480648       -3.5873643341       -1.1915666610
 H       -13.3785853873       -5.2143044969       -1.5047386062
 H       -10.8406713311       -7.3228419673        0.1713078764
 H       -11.3598393676       -7.2010536090       -1.5400825097
 H       -12.5251691505       -7.1740472728       -0.2791132213
 Na      -10.7380290519       -1.5553594544       -0.8138387124
