117

 C        -8.8857072595       -5.3988023223       -0.1697641039
 C       -10.0765972155       -4.6215434249       -0.7428851740
 O        -9.8180243749       -3.5556136892       -1.3126053628
 C       -11.6063436862       -5.1442060584       -0.5021900251
 C       -11.9134790390       -4.4428171737        0.9127250898
 O       -12.1134496871       -3.1932790771        0.7454127467
 C       -12.1419473254       -5.0104893164        2.3437509384
 C       -11.5067736308       -4.2437479785        3.4881667948
 C       -10.0164187791       -4.8145668325        3.4998409178
 O        -9.6757525737       -5.7809342179        2.8670507687
 C        -9.0713149482       -4.1111688017        4.4923049927
 C        -8.6428756144       -2.5348159595        4.1097383473
 O        -9.1557702746       -1.6514052718        4.7354513795
 C        -7.2482916395       -2.3834513154        3.3376751267
 C        -7.3468192011       -1.1569464663        2.3339090461
 C        -8.1514435728       -1.0866612068        1.0485321259
 O        -9.1010577343       -1.8683160167        0.8524838300
 C        -7.8079101184        0.0246561714        0.0106348968
 C        -9.1659297155        0.9816515511        0.0694032588
 O       -10.2239285101        0.4560100575       -0.2074139256
 C        -9.0387446804        2.5164997125        0.4350361068
 C       -10.4106846325        3.2022646051        0.5646834825
 C       -11.2071279361        3.3357045892       -0.6821820682
 O       -10.9422982273        2.5420025050       -1.5772937506
 C       -12.1037399971        4.5663147305       -0.9444158997
 C       -11.4681284680        5.9577811640       -0.8211924542
 O       -10.4274168611        6.2636799564       -0.3363695254
 C       -12.4813016620        7.0675618635       -1.2172210266
 C       -11.8835514803        8.4577340694       -0.9368148260
 C       -11.9555228941        9.4179785271       -2.2006435084
 O       -11.9882718680        9.0367923582       -3.3091806915
 C       -11.8101749484       10.9638317960       -1.8571058437
 C       -10.3371141896       11.3228801709       -1.5127345983
 O        -9.6584012081       10.6175895483       -0.8112303826
 C        -9.8977075047       12.5694799305       -2.2819771835
 C        -8.4819785869       13.1378079702       -1.9624575266
 C        -8.3702578015       14.6147992542       -2.1620977536
 O        -9.3105815929       15.3601922747       -1.8834467215
 C        -6.9347803227       15.2031849849       -2.6461382580
 C        -6.8679635580       14.9402091009       -4.1503206520
 O        -6.4648468204       13.8347559408       -4.4863916942
 C        -6.7808325050       16.2008050196       -5.0335913764
 C        -6.9887570204       16.6902252025       -1.9926810496
 C        -5.6512526115       14.4641306545       -1.9325830067
 C       -12.2809312563       11.5599205647       -3.1913939568
 C       -12.8069518544       11.5733496137       -0.7131331402
 C       -12.7815832580        4.2907244395       -2.3692439753
 C       -13.0452234793        4.4801220391        0.2762343996
 C        -6.5079599532        0.8596984380        0.3512350113
 C        -7.7449114433       -0.5414622666       -1.3983124833
 C        -9.6940168503       -3.9341713783        5.8949527753
 C        -7.7869266251       -5.0409572698        4.6936496931
 C       -12.4925857016       -4.5365985737       -1.5796847351
 C       -11.5535844591       -6.6658993318       -0.5148441407
 H        -8.0687000444       -4.8116900755       -0.4157749947
 H        -8.7494982734       -6.3601565165       -0.5447552110
 H        -8.8683274945       -5.5899142057        0.8921259945
 H       -11.8230370371       -6.0748658962        2.5094063350
 H       -13.2301459287       -4.8605951418        2.4599773228
 H       -11.8658760037       -4.3807975164        4.4074996154
 H       -11.5088528809       -3.2012907125        3.3335110808
 H        -6.7637307768       -3.2966977885        2.8897044156
 H        -6.5824806311       -2.0023258041        4.1734335759
 H        -6.3949412698       -0.7172613459        2.0717069960
 H        -7.8355249240       -0.4814269745        3.0337194982
 H        -8.5541244321        2.8057666160       -0.4675783000
 H        -8.2959410426        2.8136716090        1.1725900403
 H       -10.2846909816        4.0944720193        1.1805045600
 H       -10.8677498317        2.5713970112        1.3859411119
 H       -13.3343568679        6.7268555654       -0.6324259174
 H       -12.4967063054        6.9348444327       -2.2789005104
 H       -10.8407126012        8.4432952183       -0.6797261285
 H       -12.3471531434        8.7675658271       -0.0292439173
 H       -10.5802294929       13.3898828877       -2.1990194295
 H        -9.7068951584       12.0612510360       -3.2401349708
 H        -7.7006750189       12.5509068634       -2.5521906487
 H        -8.1416375787       12.8787314900       -0.8891894444
 H        -7.6009215135       16.9493618805       -4.9488606707
 H        -6.7485216488       15.8041423751       -6.0320605229
 H        -5.8251100181       16.6856640179       -4.8366173226
 H        -6.6117077628       16.4866843660       -1.0277152277
 H        -7.9208254105       17.1412903526       -2.0299094328
 H        -6.3232813623       17.4553719553       -2.4175646369
 H        -4.7368145019       14.9223932961       -1.9831071782
 H        -5.5731032460       13.4568768707       -2.4357290366
 H        -6.1202497634       14.3811972987       -0.8934187600
 H       -12.4750607356       12.6518735880       -3.2451431870
 H       -13.2093652244       11.0394328779       -3.5007397736
 H       -11.6051975653       11.2269873854       -3.9845286880
 H       -13.7346286938       11.9262429578       -1.3351157661
 H       -12.3599356217       12.4479534516       -0.1581833909
 H       -13.1371468077       10.9723231014        0.0683382774
 H       -12.7820037835        5.1371629757       -3.0955256365
 H       -13.7807906892        3.9028974417       -2.4019242642
 H       -12.1336931441        3.5941360445       -2.9688204372
 H       -14.0919006861        4.9020403914        0.0879259030
 H       -12.4428810031        5.0297742225        1.0251777265
 H       -13.2246877289        3.4489288095        0.5741938619
 H        -6.3421396802        1.5423914080       -0.5067037250
 H        -5.7281839900        0.0121280036        0.2303889403
 H        -6.4783355351        1.3250645006        1.3976694105
 H        -8.1337792828        0.1207181279       -2.2221562780
 H        -8.3697425783       -1.4359335228       -1.3798815528
 H        -6.6754109364       -0.7018931020       -1.6858308155
 H        -9.0085984199       -3.3717009818        6.4504043782
 H        -9.6729380044       -4.8960224992        6.4210833218
 H       -10.6905948796       -3.5306944029        5.9115227334
 H        -7.8329872019       -5.8394642399        4.0707534445
 H        -7.8163034548       -5.4792586813        5.7204803054
 H        -6.8636956210       -4.4447387062        4.4748574080
 H       -12.0304400055       -4.8171120615       -2.5163798806
 H       -12.4422594020       -3.4907465764       -1.5258420514
 H       -13.4930925770       -4.8886878850       -1.4397246532
 H       -10.8390291118       -7.0128899102        0.2891712198
 H       -11.3173480319       -7.1369710864       -1.4792543115
 H       -12.5129930423       -7.2248719417       -0.2393668677
 Na      -10.8362173957       -1.4725625070       -0.8698377173
