117

 C        -9.0162048359       -6.0850382765       -0.3777111413
 C        -9.9910104986       -4.8876691609       -0.6776499041
 O        -9.5676575337       -3.9323027333       -1.3705451028
 C       -11.5731352710       -4.8534914963       -0.2661596386
 C       -11.7134573845       -3.8455000457        0.9810693770
 O       -11.6319832367       -2.6742798000        0.8363203210
 C       -12.3805818045       -4.3187333675        2.2636327111
 C       -11.8970332019       -3.6335956470        3.5880453845
 C       -10.3607604000       -4.0585154145        3.6292453852
 O        -9.8356611013       -4.6426656926        2.7102471447
 C        -9.6014482892       -3.7174580826        4.9375949771
 C        -8.9593584219       -2.4070512950        4.3299368166
 O        -9.4723988881       -1.3704071326        4.5840658807
 C        -7.6597442373       -2.6703248686        3.4503353410
 C        -7.3443274435       -1.5150653163        2.5604043263
 C        -8.2049383282       -1.3884889368        1.2047286935
 O        -9.0748098478       -2.2245258332        0.9792416013
 C        -7.8287580396       -0.2607999478        0.0724282998
 C        -9.1044110836        0.8591541448       -0.0714756098
 O       -10.1947460846        0.4683282551       -0.3976358766
 C        -8.9569175406        2.3510300337        0.2484718613
 C       -10.3457654988        3.0368505270        0.4783324899
 C       -10.8185599568        3.6136375823       -0.7970706975
 O       -10.1695977680        3.4510426114       -1.8129434562
 C       -12.1453755423        4.4033066440       -0.7709221521
 C       -11.5689434356        5.8908417251       -0.4130965702
 O       -11.0106229880        6.0402487759        0.6463819873
 C       -12.1491334320        7.1092242863       -1.2179353786
 C       -11.5354067124        8.4753164260       -0.8673928162
 C       -12.0757757029        9.4886624181       -1.9443870907
 O       -12.8569561063        9.0168818718       -2.8225092039
 C       -11.8844585458       10.9922034411       -1.9595491178
 C       -10.3090885921       11.3197655889       -2.2207475240
 O        -9.4702004838       10.5080466612       -1.7951511539
 C        -9.7653301526       12.6585061228       -2.9040972157
 C        -8.3865085314       13.0148130297       -2.2250055672
 C        -8.0555970755       14.5061733657       -2.4235141684
 O        -8.9961850065       15.2920176724       -2.2607057823
 C        -6.6818181662       14.9920440727       -2.9685194629
 C        -6.5710064538       14.6610369501       -4.5084886335
 O        -7.0557302630       13.6029490236       -4.8708415024
 C        -5.7204953801       15.5203833844       -5.3497582508
 C        -6.3492867412       16.5067673353       -2.4809184404
 C        -5.6153548435       14.0339596834       -2.4719166167
 C       -12.7580733742       11.7962915384       -2.9470907077
 C       -12.3015512196       11.4171999702       -0.5005889530
 C       -12.9704114884        4.0820575423       -2.1056317223
 C       -13.0588384689        4.0494000128        0.4183373305
 C        -6.5045901257        0.4413776973        0.5108752222
 C        -7.5585130958       -0.8220825720       -1.3962042055
 C       -10.5316962134       -3.4170290559        6.2062566208
 C        -8.5992002705       -4.8117640708        5.4198705162
 C       -12.5059535722       -4.3214351966       -1.3660029119
 C       -11.8481157606       -6.4154927316        0.1018359696
 H        -8.0597180317       -5.8705254760       -0.9325334634
 H        -9.4776637716       -7.0705257162       -0.7796951918
 H        -8.9869341074       -6.4647656313        0.7223411530
 H       -12.0601773734       -5.3341018760        2.4678331082
 H       -13.5478708833       -4.3464883836        2.1443048344
 H       -12.4597602853       -4.0533743660        4.4929056111
 H       -12.0801781907       -2.4321416396        3.4779171899
 H        -7.7810193451       -3.6299777862        2.9676115403
 H        -6.9455217119       -2.7075983634        4.2171203841
 H        -6.2690921626       -1.4833207833        2.4941690397
 H        -7.6340522499       -0.5843528181        3.0131900918
 H        -8.3165958071        2.7033467555       -0.6902140705
 H        -8.1020337958        2.4681889646        0.8704248848
 H       -10.2330522164        3.8452584469        1.1608993832
 H       -10.9521657115        2.2569014641        0.9309907815
 H       -13.2470425794        7.1789742376       -1.0135907341
 H       -12.2331880816        6.8238771044       -2.3353340672
 H       -10.4399996331        8.5982132354       -0.9334640285
 H       -11.8343334906        8.9293138253        0.0616223884
 H       -10.4343879178       13.5023556814       -2.6295356792
 H        -9.8026148974       12.5609960416       -3.9787598354
 H        -7.6081628415       12.3690862442       -2.6302113914
 H        -8.3886826585       12.6205422655       -1.2119002958
 H        -6.3540408934       16.2350685532       -5.8080503618
 H        -5.3913182822       14.9895077255       -6.2288423799
 H        -4.8290705212       15.9558532775       -4.9568609015
 H        -7.0363373208       16.7742783862       -1.7249836778
 H        -6.3606977146       17.4819870215       -3.0991910258
 H        -5.2911614864       16.5778212903       -2.0465061619
 H        -4.6938053078       14.3959745696       -2.8336239074
 H        -5.8471926249       13.0909272073       -2.8427274043
 H        -5.6963797179       13.9234551371       -1.4301456730
 H       -12.7667177846       12.8890741727       -2.7128581876
 H       -13.7961225065       11.5185476555       -2.7733460188
 H       -12.4694236405       11.5625352635       -3.9576731380
 H       -13.3124617764       11.0889550064       -0.3239088104
 H       -12.3381059358       12.4877419022       -0.5627709176
 H       -11.6440792682       11.1175547047        0.3169678298
 H       -13.9807406359        4.2530076627       -2.0016500552
 H       -12.8869929492        3.1112554742       -2.4630534237
 H       -12.6015077069        4.6440950194       -2.9354458365
 H       -13.9466259014        4.6233766428        0.2230514232
 H       -12.5672063011        4.3783185735        1.3495085189
 H       -13.1938529906        2.9107851843        0.4409720490
 H        -6.2752739626        1.3101880088       -0.1442647137
 H        -5.6649735432       -0.2133427402        0.4157579865
 H        -6.7415736076        0.9282684842        1.4626592517
 H        -7.9910348802       -1.7413746820       -1.2603217447
 H        -6.5014186001       -0.7616200878       -1.6048431803
 H        -8.1704200703       -0.3288822435       -2.1224557335
 H        -9.8816915188       -3.1022159740        6.9798861190
 H       -10.9843150412       -4.3706352737        6.4629984531
 H       -11.2390040245       -2.6412299386        6.1674031591
 H        -8.1188985454       -4.5229202792        6.2779549130
 H        -7.7861692818       -4.9890470184        4.6992763068
 H        -8.9876143023       -5.8423710680        5.5856735157
 H       -12.2981210557       -4.6838862995       -2.3367052231
 H       -12.3828598771       -3.2356693572       -1.1711913999
 H       -13.5013343960       -4.5964007055       -1.0434053354
 H       -11.2489969989       -6.6337178206        1.0641026838
 H       -11.4385281594       -7.0694320500       -0.6750438873
 H       -12.7954794888       -6.8637094634        0.3881631582
 Na      -10.2776373209       -1.7435817374       -0.8233922210
