117

 C        -9.4154705768       -6.4523339886       -0.2238484591
 C       -10.3710424599       -5.2061563710       -0.6219649646
 O        -9.8280929463       -4.1733488428       -1.1653441234
 C       -11.8443125948       -5.1683862353       -0.1602704613
 C       -12.0342070249       -3.9781903457        0.9788696089
 O       -11.7448586304       -2.8259536485        0.7001326648
 C       -12.9072599345       -4.2002234613        2.3234289344
 C       -12.1784064597       -3.4592688385        3.4585191988
 C       -10.7214978589       -4.0017324496        3.5938554513
 O       -10.3808155284       -4.7500014077        2.7041882234
 C        -9.9112227083       -3.3246463605        4.7606184175
 C        -8.9438430542       -2.0651859657        4.2284126648
 O        -9.2854606327       -0.9302838055        4.3627384387
 C        -7.4471694917       -2.2299178125        3.7647051108
 C        -7.1644782148       -1.1045974343        2.8128782714
 C        -7.9517531015       -1.1752048339        1.4266590117
 O        -8.9358706239       -1.9727808832        1.1897134676
 C        -7.4066846574       -0.1061404728        0.3932988257
 C        -8.7150173318        0.9851750183        0.1318871202
 O        -9.7763781125        0.4378531202       -0.2439316784
 C        -8.7417507901        2.4312625033        0.4899389466
 C       -10.0821224960        3.2341439370        0.6561512233
 C       -10.5828010484        3.8674938854       -0.6716209267
 O        -9.8207983569        3.9519609111       -1.6689310502
 C       -12.0929241052        4.4234650080       -0.6113173124
 C       -11.8908279666        6.0264942657       -0.3460634016
 O       -11.7783195520        6.4475119262        0.8061982563
 C       -11.7359374827        6.8476833963       -1.8025194023
 C       -11.1780608770        8.3087041622       -1.5312230688
 C       -12.2375134142        9.3849602300       -2.0210179960
 O       -13.2831803534        9.0276460719       -2.5786156394
 C       -11.8626451612       10.8536499343       -1.7834170881
 C       -10.2662081607       11.2111718173       -2.1865178418
 O        -9.4903565744       10.3298814143       -2.3181911349
 C        -9.7189696004       12.6695710281       -2.2848541465
 C        -8.3201525501       12.8808840379       -2.9088670793
 C        -7.9203472127       14.3232946153       -2.7775430921
 O        -8.7552508654       15.1502077990       -2.4169694970
 C        -6.5311177565       14.7008967500       -3.2162818080
 C        -6.2881401277       14.2317576597       -4.7178464043
 O        -7.1682475507       13.7854547038       -5.4311481427
 C        -5.1785938760       14.9034467640       -5.5808881954
 C        -6.2389108033       16.1183828315       -2.9536903103
 C        -5.5936938913       13.7904807113       -2.3523789481
 C       -13.0313934210       11.7467715011       -2.4889350485
 C       -11.7896794421       11.1871364018       -0.2506017883
 C       -12.9428277944        3.9664319455       -1.8745703864
 C       -12.8508157187        3.7232100137        0.5840039521
 C        -6.2072876538        0.6652381691        0.7352453546
 C        -7.0310565593       -0.7774618341       -1.1089818386
 C       -10.8001273019       -2.6293726269        5.7592281003
 C        -9.0507275146       -4.3460397548        5.4586345573
 C       -12.7057629948       -4.5649151902       -1.4782467811
 C       -12.3161357088       -6.5642010457        0.2360662917
 H        -8.3114821707       -6.1839516851       -0.5962930462
 H        -9.5564745007       -7.4393430143       -0.5792177805
 H        -9.5040623747       -6.5972998056        0.8970738243
 H       -13.0901493214       -5.2328586976        2.6491382352
 H       -13.9899097040       -3.8406115998        2.0943455539
 H       -12.8018413181       -3.4815885149        4.4099588820
 H       -12.0194904720       -2.4022458357        2.9340983593
 H        -7.5485297824       -3.2264869490        3.2563320440
 H        -6.8820499506       -2.2631563919        4.6541273065
 H        -6.1147627120       -0.9566487692        2.6506345966
 H        -7.4285294131       -0.1684237317        3.3154587002
 H        -8.1489062038        2.9483820173       -0.3195820615
 H        -7.9820673946        2.6351090800        1.1592287947
 H        -9.7249590442        3.9381469041        1.2991955837
 H       -10.8221854178        2.5240430513        1.0457304532
 H       -12.6289181663        6.6889603367       -2.4161869238
 H       -11.0653366229        6.2248213218       -2.5151478011
 H       -10.1720201214        8.2791830549       -1.9741828128
 H       -11.0466358500        8.5686658182       -0.4801174482
 H        -9.8933639101       13.2127929645       -1.3710799186
 H       -10.4521922124       13.3179481944       -2.7864806757
 H        -8.4240993995       12.7085518134       -4.0278001703
 H        -7.6423149664       12.0627746707       -2.4844232924
 H        -5.4975664469       15.9698085072       -5.6717097576
 H        -5.2038248676       14.5798660779       -6.6330474163
 H        -4.1258634049       14.8827312213       -5.3301534646
 H        -6.0596325565       16.4148367337       -1.9283214337
 H        -7.0243615162       16.8146490350       -3.1218184852
 H        -5.2881744960       16.4953962093       -3.5314855840
 H        -4.6829216285       14.1395358184       -2.6198207294
 H        -5.7428314146       12.7445402131       -2.7387620840
 H        -5.6939845757       13.9085993549       -1.2373149345
 H       -12.8148615313       12.8612173149       -2.4285988592
 H       -13.9193522450       11.4583915277       -1.9659435404
 H       -13.1310633639       11.4665867573       -3.5169264011
 H       -12.8113438979       10.9802398602        0.2624735309
 H       -11.4514716812       12.2759979551       -0.2114277197
 H       -11.0799406737       10.5383222320        0.1843552338
 H       -13.8634457462        4.4585541692       -1.9301722553
 H       -13.2113069236        2.9566879670       -1.7989531411
 H       -12.3827404159        4.2210176689       -2.8328817421
 H       -13.8932184091        3.9809262148        0.4507629215
 H       -12.5063435169        4.0650027375        1.5658224418
 H       -12.5631161459        2.6657707526        0.4012723399
 H        -6.1442000960        1.4096904789       -0.0742086683
 H        -5.3444012198       -0.0117328074        0.7820802748
 H        -6.0743562913        1.1769471275        1.7486784597
 H        -7.3136365080       -0.0122216887       -1.8511207058
 H        -7.5261380417       -1.7293124594       -1.3461487900
 H        -5.8968500566       -0.7651760720       -1.0482972139
 H       -10.2675967744       -2.1639635889        6.5732025922
 H       -11.5669603884       -3.3742068750        6.1819897386
 H       -11.3609187629       -1.8317065841        5.2530998303
 H        -8.4833669855       -4.9248742229        4.8552554449
 H        -9.6490894605       -5.1437258262        5.9333438723
 H        -8.3121692062       -3.9546757929        6.1284824767
 H       -12.9360302525       -5.3941097050       -2.0415880230
 H       -12.2160537630       -3.7541670192       -2.0169016272
 H       -13.6456414968       -4.4138029181       -1.0162744751
 H       -11.9401426956       -7.0504795567        1.1641203164
 H       -11.7557392483       -7.1742196335       -0.4203980241
 H       -13.3584259314       -6.8239187774        0.1169378988
 Na      -10.3414870745       -1.9981527463       -0.8540249564
