117

 C        -9.6334941993       -6.4308819123       -0.1113079229
 C       -10.3769557138       -5.1165747511       -0.4336680725
 O        -9.7892143541       -4.2877850877       -1.1085770381
 C       -11.9279859201       -5.2322860283       -0.0869348964
 C       -12.2105691105       -4.1093064619        0.8952729623
 O       -11.9551308122       -2.9289057957        0.6218810921
 C       -12.8774244272       -4.2778433309        2.2012388527
 C       -12.2701057365       -3.3398228110        3.1934637096
 C       -10.7788581267       -3.8162290948        3.4511724869
 O       -10.3188554848       -4.7998887931        2.9190497251
 C        -9.9405361610       -3.1602241268        4.6547356722
 C        -9.0479034158       -2.0104182480        4.2198142149
 O        -9.4028597420       -0.8126126112        4.3056530960
 C        -7.4899975144       -2.1935245729        3.7713040013
 C        -7.2216502800       -1.1682901119        2.7152888518
 C        -7.8178246316       -1.0875945905        1.3725582060
 O        -8.8230255049       -1.7295915970        1.1431720589
 C        -7.2933803766        0.0707653869        0.4071566588
 C        -8.6147592421        0.8384294451        0.2218836086
 O        -9.6179770353        0.3891547820       -0.2588851594
 C        -8.4939287657        2.4300346099        0.4186905902
 C        -9.9518979851        2.9934479198        0.6482766047
 C       -10.5608257165        3.7605666118       -0.5681694551
 O        -9.8385936426        3.9563613164       -1.5175404001
 C       -12.0866317073        4.3473082279       -0.6100689397
 C       -11.9796697582        6.0042511393       -0.5236934793
 O       -12.0094652628        6.4732363401        0.5949532350
 C       -11.6361140117        6.8018276068       -1.6657181618
 C       -11.1606826087        8.2971723632       -1.5532894282
 C       -12.2321429444        9.3675247367       -2.0228833872
 O       -13.2480135690        9.0667816088       -2.4507536819
 C       -11.7868713060       10.8500166206       -1.8121376007
 C       -10.3139299634       11.2232218520       -2.3314496907
 O        -9.5118028260       10.3547547746       -2.4928450615
 C        -9.7227989672       12.6224743459       -2.2133049605
 C        -8.4768130045       12.7268462630       -3.0360812712
 C        -7.9828249702       14.2272988729       -2.8951811076
 O        -8.7435239350       15.0438092742       -2.5083714298
 C        -6.3310960144       14.6485713374       -3.3273044682
 C        -6.3379600296       14.3664023186       -4.9341937533
 O        -7.2216953347       13.7002382282       -5.4446487948
 C        -5.0161107489       14.6341065464       -5.6218264281
 C        -6.1904096223       16.1727203510       -2.8836565621
 C        -5.2949858269       13.8323678408       -2.4720857301
 C       -13.0024569368       11.6964912710       -2.2091376093
 C       -11.8674117638       10.9783238165       -0.2103815703
 C       -12.7628597463        3.9067957774       -1.8644744278
 C       -12.8501141537        3.9188290416        0.6639993213
 C        -6.0917002850        0.8095064696        0.7715213552
 C        -7.1309856142       -0.5461265804       -1.0223496005
 C       -10.9882470812       -2.5022240631        5.5942476212
 C        -9.1113355726       -4.3096997372        5.3706668792
 C       -12.8074515448       -4.6318431108       -1.2058883646
 C       -12.4610870281       -6.5400463802        0.3024351151
 H        -8.6152786543       -6.4211500104       -0.5499876304
 H       -10.1405567812       -7.3358493274       -0.7062807585
 H        -9.7787021322       -6.7819089722        1.0005058327
 H       -12.9957974904       -5.3534840745        2.5956100621
 H       -13.9323795534       -3.9846031870        2.0991565194
 H       -12.9104905405       -3.5936377160        4.1651617135
 H       -12.4278619516       -2.3355703817        2.7639294425
 H        -7.3663682749       -3.2011565965        3.4280157001
 H        -6.8853983150       -1.9952136000        4.6111391142
 H        -6.1669427498       -1.0560358974        2.5800428455
 H        -7.4021183933       -0.2073942833        3.2318421877
 H        -8.0016828325        2.9134150765       -0.5060008448
 H        -7.5715962668        2.8171155742        1.0929846947
 H        -9.8510767395        3.5783829702        1.5232784866
 H       -10.5427749063        2.0679263754        0.7292602998
 H       -12.4298564522        6.5055744993       -2.3529887451
 H       -10.8902770267        6.2537884237       -2.2490262434
 H       -10.1737823472        8.2387740109       -1.9930246624
 H       -10.9922991734        8.5805708080       -0.4992830156
 H        -9.5744291515       12.9347865936       -1.1878040967
 H       -10.4668084629       13.4164024874       -2.3044135207
 H        -8.6170910239       12.5410456398       -4.1087424394
 H        -7.9079751859       11.9505770749       -2.6228948879
 H        -4.6625064258       15.6716462902       -5.5792962497
 H        -4.9898156460       14.4201285795       -6.6589560324
 H        -4.2691692078       14.0235516694       -5.1752341008
 H        -6.1836308806       16.4830137495       -1.7326910458
 H        -6.8893852035       16.9276885615       -3.2328259234
 H        -5.2234274643       16.4734590165       -3.2199092662
 H        -4.3089656664       14.1965612753       -2.6341492468
 H        -5.4034290008       12.8555369619       -2.8415838990
 H        -5.5266519041       13.9573288833       -1.4578063972
 H       -12.8774624318       12.7675735901       -2.2033022754
 H       -13.7256451306       11.3225502636       -1.4802511992
 H       -13.3757384664       11.3307364097       -3.1589241895
 H       -12.7400301867       10.3877333653        0.0908105175
 H       -12.0237248300       12.0250287505       -0.0535072323
 H       -11.0054091602       10.6103625229        0.3008944790
 H       -13.8024749891        3.8506061671       -1.6897502457
 H       -12.4742208964        2.9148508905       -2.0989988931
 H       -12.6548961597        4.5742750391       -2.6272619422
 H       -13.8794584796        4.3908696113        0.5266446376
 H       -12.3688470783        4.4841183799        1.4927537149
 H       -12.7907495155        2.8495465890        0.7842702455
 H        -6.0005251074        1.6116138344        0.0933023576
 H        -5.1614163266        0.2121748689        0.8234032013
 H        -6.1124791273        1.1716066980        1.7654965804
 H        -6.7153513649        0.2054184643       -1.7020613688
 H        -8.0161465723       -0.9396669166       -1.3930784519
 H        -6.3838858108       -1.2334227559       -0.8316044291
 H       -10.5537468440       -1.9958690684        6.4357210351
 H       -11.6717536531       -3.2460436082        5.9920742363
 H       -11.5971063297       -1.8009953312        5.0122091469
 H        -9.0812603376       -5.3690321333        4.9527007660
 H        -9.6252089362       -4.5421904128        6.2304464485
 H        -8.1088834856       -4.1352251014        5.6079328928
 H       -13.0285274969       -5.4062161038       -1.9559132041
 H       -12.2763025436       -3.8113827669       -1.5876278515
 H       -13.7600327469       -4.4957651014       -0.7047032597
 H       -12.0613734724       -6.9748124758        1.2001874281
 H       -12.2514653114       -7.3664820790       -0.3977894716
 H       -13.5923475903       -6.4832442791        0.3693156639
 Na      -10.1789370175       -1.8428036368       -0.5826130900
