117

 C        -9.7092564122       -6.4933827889       -0.0418958463
 C       -10.4670771047       -5.2771560908       -0.5045716694
 O        -9.9416541338       -4.2817023701       -0.8637012107
 C       -12.0634117225       -5.2155899777       -0.1420721198
 C       -12.2763714793       -4.0019498991        0.8828209916
 O       -11.9907218785       -2.8584471313        0.5096880529
 C       -12.9304406588       -4.3579304213        2.2362661689
 C       -12.2497167386       -3.3384993188        3.2179256971
 C       -10.8464565008       -3.7600588083        3.4955784314
 O       -10.3100983626       -4.7306026248        2.9598041229
 C       -10.0804690977       -3.0227423820        4.6399484836
 C        -9.1472831498       -1.8780429075        4.1819439096
 O        -9.5637561656       -0.7664148897        4.2037428358
 C        -7.6492948634       -2.1979344410        3.6283760366
 C        -6.9330975423       -1.0524368565        2.8090628440
 C        -7.6939597181       -0.9729962689        1.4097944862
 O        -8.6093545795       -1.7016842080        1.1954942236
 C        -7.2296853018        0.1171631822        0.3195158334
 C        -8.5133383433        0.9407622827        0.0876782146
 O        -9.6012217095        0.4496848213       -0.2318208474
 C        -8.5999068326        2.5164044514        0.3234886441
 C       -10.0529654741        2.8756076088        0.6840635021
 C       -10.4846545819        3.7750186804       -0.4853881211
 O        -9.8648022138        3.9958642576       -1.4707903088
 C       -11.9431196089        4.3343389159       -0.4521339117
 C       -11.8596111986        5.9596671677       -0.5149839419
 O       -12.2590477470        6.5186506430        0.4531526575
 C       -11.5005628964        6.7359308566       -1.8965945763
 C       -11.1449121319        8.1157880877       -1.4937305324
 C       -12.1055460827        9.1906787068       -1.9258604871
 O       -13.2402391815        9.0177105531       -2.4350264752
 C       -11.8258529198       10.7809856345       -1.6332838154
 C       -10.3793471255       11.1460078995       -2.1851590487
 O        -9.6699239257       10.2744640911       -2.7568939738
 C        -9.8289793080       12.5830082041       -2.1652185100
 C        -8.5267509010       12.7880666366       -3.0803713534
 C        -7.9168876160       14.1576318963       -3.0046519692
 O        -8.5898373798       15.0886776511       -2.5891461425
 C        -6.3973390563       14.5058984400       -3.4091223367
 C        -6.2316966756       14.3304153703       -4.8802831091
 O        -7.1732059474       13.7897014440       -5.4327312975
 C        -4.8952502364       14.3963342874       -5.5706865900
 C        -6.2657747059       16.0600224449       -2.9881518453
 C        -5.2469949955       13.8330293250       -2.7447005784
 C       -12.9001563023       11.7859984852       -2.2050457407
 C       -11.7282925051       10.8347667811       -0.0568858507
 C       -12.5580337674        3.8381442004       -1.8766101163
 C       -12.8380104571        4.0153145654        0.8113645470
 C        -5.9771108065        0.9190878148        0.9259403285
 C        -7.0867249754       -0.5607883668       -1.1085891328
 C       -11.1013299721       -2.4024971790        5.6455435093
 C        -9.2814621944       -4.1363402464        5.2945570724
 C       -12.9045295549       -4.7405775304       -1.3817732938
 C       -12.5670358569       -6.5502605722        0.4039476947
 H        -8.6589546580       -6.4490569958       -0.2326462709
 H       -10.0910966623       -7.4540543760       -0.5381333909
 H       -10.0504911742       -6.5692010118        0.9908741308
 H       -12.6972663778       -5.4070377464        2.4264787260
 H       -13.9874076938       -4.3561642597        2.3135730215
 H       -12.8040761718       -3.2788192885        4.0888138260
 H       -12.2388456479       -2.4478453015        2.6676043125
 H        -7.6801812446       -3.0757957305        3.0406991557
 H        -7.1337266682       -2.4460245576        4.5836708874
 H        -5.8636563933       -1.3646928282        2.6221026182
 H        -6.7615238630       -0.1185023827        3.3669163841
 H        -8.1858642254        3.2884488720       -0.4244403868
 H        -7.7842771567        2.7878780287        1.0923910333
 H        -9.9112297733        3.6197898021        1.6003032811
 H       -10.6280947044        1.9668635833        0.7839758967
 H       -12.4892582400        6.6151965263       -2.4095026932
 H       -10.9505564338        6.2973253586       -2.6536053578
 H       -10.1329359009        8.3418498417       -1.8701995551
 H       -11.0434461135        8.1423645251       -0.3626883857
 H        -9.7500088367       13.0566413166       -1.1821449788
 H       -10.6684237020       13.2715297567       -2.3268922684
 H        -8.7252842317       12.6975672846       -4.1051713737
 H        -7.9291699994       11.9958328764       -2.7398716574
 H        -4.3077539619       15.2439250944       -5.3589670413
 H        -5.0843683522       14.4609823049       -6.6200494950
 H        -4.2593527611       13.5328548133       -5.4085954940
 H        -6.4294743735       16.2935244348       -1.9628915683
 H        -6.8472811649       16.9049176717       -3.4725675436
 H        -5.2554104991       16.3046931360       -3.1422467919
 H        -4.3229542238       14.3943449497       -3.0949801519
 H        -5.1577476723       12.8649180420       -3.0928548928
 H        -5.3242482961       14.0381323469       -1.7400058460
 H       -12.5374593255       12.7728377797       -2.1075053089
 H       -13.8538868320       11.6302371624       -1.6843819269
 H       -13.0377956400       11.5169837587       -3.2783901519
 H       -12.3058834894       10.0965354271        0.3129196599
 H       -12.0029849123       11.7656170153        0.2721994252
 H       -10.6809579365       10.6242683103        0.2523441613
 H       -13.5561918583        3.4214509326       -1.7022973345
 H       -11.9346199707        3.0012900965       -2.1852371791
 H       -12.7384315795        4.6647684744       -2.5245080708
 H       -13.7044712874        4.6203618889        0.5463317026
 H       -12.3894072152        4.4917914433        1.6942724653
 H       -13.0563260060        2.9526228164        0.8990362321
 H        -5.7163349290        1.7763247244        0.2886895859
 H        -5.0806586147        0.3952391721        1.1554295066
 H        -6.2551083405        1.2788852702        1.8660183784
 H        -6.2556845689       -0.1427986965       -1.5538102069
 H        -7.9239836470       -0.4294384333       -1.7821954223
 H        -6.8257810620       -1.5510553710       -0.9196479354
 H       -10.4946711877       -2.1152573973        6.5121688075
 H       -11.7540828303       -3.1026594121        6.0256615530
 H       -11.6917435833       -1.5819779856        5.2688451424
 H        -9.5428866414       -5.2140437565        5.1540955328
 H        -9.3358936985       -4.1328052376        6.3814071686
 H        -8.2077663509       -4.1387043157        5.0574399609
 H       -12.6879724232       -5.5166423002       -2.1658041655
 H       -12.4342607879       -3.8179845635       -1.7128821376
 H       -13.9604236638       -4.8381745321       -1.1412848621
 H       -11.9319706866       -6.9830333984        1.1543593103
 H       -12.8063402733       -7.4466300960       -0.2314067520
 H       -13.5225354031       -6.3496210267        0.8888009944
 Na      -10.1097753566       -1.8238568749       -0.3777072788
