117

 C        -9.9818387360       -6.5173897908       -0.0397067349
 C       -10.6959384880       -5.2102649338       -0.3263837361
 O       -10.0643065938       -4.1778523670       -0.5720976064
 C       -12.2963844101       -5.1612583268       -0.2120309043
 C       -12.5875495846       -3.9308137326        0.7318455195
 O       -12.1479541659       -2.8885922993        0.3269468523
 C       -13.0597618418       -4.2060462297        2.2638741381
 C       -12.4191481953       -3.2480991512        3.3062358005
 C       -10.9479026992       -3.5283688537        3.5167378016
 O       -10.2696616496       -4.3116114161        2.9174833063
 C       -10.1195978832       -2.7980060803        4.7747587767
 C        -9.2848516677       -1.7396355540        4.1251467143
 O        -9.6868664296       -0.6380474107        3.7591395299
 C        -7.7474449154       -2.1339251768        3.7736559533
 C        -7.0956384242       -1.0879729081        2.8790845795
 C        -7.5524208298       -1.0179450823        1.4665978096
 O        -8.3052114791       -1.8350092051        0.9639290152
 C        -7.0924938646        0.1732577697        0.4987472687
 C        -8.5657889452        1.0153750119        0.1891508820
 O        -9.4984339955        0.4172099868       -0.3309724712
 C        -8.5861239612        2.4165863844        0.6510812817
 C        -9.9187440861        3.1270218366        0.8785065747
 C       -10.4973174629        3.9723720404       -0.4791676501
 O        -9.6406854158        4.2254049815       -1.3558774313
 C       -12.0252704855        4.3618463720       -0.5662059653
 C       -12.0946847548        6.0674285004       -0.6339592681
 O       -12.5736123571        6.6616580307        0.3152114725
 C       -11.4338631833        6.6520146002       -1.8523523085
 C       -10.8561265916        8.0566902628       -1.5411155948
 C       -12.0384046812        9.1880711783       -1.7622033663
 O       -12.9879869634        8.9320637951       -2.3885732159
 C       -11.5764358478       10.6018564911       -1.4461466445
 C       -10.2637638077       10.9621277806       -2.3800615237
 O        -9.9215773761       10.2660639805       -3.2701260475
 C        -9.7245020512       12.4444645669       -2.2180192633
 C        -8.4335535904       12.6802961706       -2.9585657690
 C        -7.9244721384       14.1572237329       -2.9447107395
 O        -8.6027828529       15.0354528324       -2.5329932178
 C        -6.4694693037       14.3995952289       -3.5348882231
 C        -6.2781728344       14.1770971346       -5.0986577679
 O        -7.2001670153       13.9309899705       -5.8412990291
 C        -4.8577619305       14.1033320583       -5.5744774483
 C        -6.0713570698       15.8143272931       -3.5006024750
 C        -5.4185020608       13.5020435815       -2.5510779176
 C       -12.7376434395       11.5796939928       -1.9386977658
 C       -11.3803564587       10.7866896200        0.0844997587
 C       -12.7004652256        3.6035470896       -1.7757724569
 C       -12.7337295973        3.9391546577        0.7771668526
 C        -5.9607181719        1.2345488637        0.7307764636
 C        -6.6542561340       -0.6112384580       -0.6952479426
 C       -11.0928926028       -2.1675069404        5.8332901739
 C        -9.2156396924       -3.8203469114        5.5975379911
 C       -12.7303966798       -5.1896498186       -1.6446359950
 C       -12.9416936412       -6.4962783190        0.2957758476
 H        -9.0838830065       -6.4735961634       -0.6165906355
 H       -10.4264204387       -7.4661773812       -0.4657904916
 H        -9.7207552360       -6.5530487172        1.0211023674
 H       -13.0792114798       -5.2847724636        2.5001062175
 H       -14.1380855079       -4.0158777041        2.3787116523
 H       -13.1132472384       -3.3704445554        4.2642236859
 H       -12.5289179026       -2.2216689302        2.9141602505
 H        -7.8647291105       -2.9947691706        2.9999367542
 H        -7.1577760713       -2.5575776708        4.5887310071
 H        -6.0423436412       -1.3733497689        2.9597134556
 H        -7.0541098316       -0.0606461233        3.3133790551
 H        -7.9975029074        2.8993753796       -0.0326025275
 H        -7.7795143973        2.4738652916        1.3667619226
 H        -9.8488877689        3.8064908463        1.6147855843
 H       -10.6161564729        2.2481966593        0.9181434298
 H       -11.9539302343        6.7002586109       -2.8177099962
 H       -10.7835499745        5.7463700852       -2.1326764210
 H        -9.9898056444        8.3794038365       -2.1484796875
 H       -10.4802452735        7.9446670694       -0.5246006014
 H        -9.7957996955       12.7437394816       -1.1969214525
 H       -10.3586375298       13.2825719889       -2.4006536997
 H        -8.6798936566       12.3679874919       -4.0363236868
 H        -7.6168415575       12.0702310985       -2.4576087014
 H        -4.1069149679       14.4531215762       -4.7905993495
 H        -4.5704661624       14.4892705442       -6.5821974773
 H        -4.6342401947       13.0236095526       -5.6082871051
 H        -6.1764554667       16.2736700898       -2.4086032105
 H        -6.6915905989       16.4366820040       -4.0622557078
 H        -5.1035469439       16.1686580528       -3.7960222739
 H        -4.3780534082       13.7129430925       -2.7296604433
 H        -5.5798855278       12.3935234849       -2.8239800446
 H        -5.7421760438       13.8921187637       -1.5187840241
 H       -12.6299468292       12.3853168269       -1.1624101478
 H       -13.6945455898       11.0649156420       -1.8334500850
 H       -12.6196329241       11.9077654574       -2.9720319791
 H       -12.3567200750       10.3749649433        0.5571595037
 H       -11.3109218728       11.9106999056        0.1726504342
 H       -10.4997085242       10.3600096897        0.4874242444
 H       -13.3626755194        2.7927938176       -1.3399242860
 H       -11.9299161170        3.1103979437       -2.4297991863
 H       -13.4339165865        4.3195427998       -2.1753600315
 H       -13.7668898067        4.2928032007        0.8391143037
 H       -12.0660997906        4.3008782171        1.5050421193
 H       -12.7732653330        2.8691160049        0.7291754277
 H        -5.6914144224        1.7599741247       -0.2050264008
 H        -4.9002592084        0.7746635378        0.9384659483
 H        -6.0099043872        1.9589366066        1.6150448430
 H        -5.6074263996       -1.1792058533       -0.7003436628
 H        -6.6266618924        0.2603934265       -1.4145409829
 H        -7.4727971052       -1.3063031617       -1.0771643133
 H       -10.4975610090       -1.8592286695        6.6614921637
 H       -11.8228175307       -2.9032471956        6.2947519620
 H       -11.7195554396       -1.3847758626        5.4111681228
 H        -9.5452811847       -3.9073451978        6.6501964317
 H        -8.1778601802       -3.5940454997        5.7842370566
 H        -9.1535789799       -4.8311214563        5.2174813863
 H       -12.1952470249       -5.8483063401       -2.2995897775
 H       -12.4706632642       -4.1802227757       -1.9421615877
 H       -13.8044181078       -5.4262169652       -1.5979919848
 H       -12.6539871713       -6.9491125676        1.2528039987
 H       -12.7439035482       -7.2493279192       -0.4025895197
 H       -14.0341099974       -6.5177636049        0.2342387608
 Na      -10.1044057733       -1.9830431915       -0.1824426745
