117

 C       -10.0878308711       -6.5828206372       -0.0690843438
 C       -10.7032686197       -5.2211273212       -0.1734782673
 O       -10.0868514609       -4.2656294028       -0.5230853055
 C       -12.3174370983       -5.2090837066       -0.1406905530
 C       -12.6323613920       -3.9624852850        0.7791593436
 O       -12.4533028322       -2.8620877354        0.2963005426
 C       -13.1406975348       -4.0391463734        2.1804203624
 C       -12.4295675179       -3.1734671291        3.2472561116
 C       -10.8731921983       -3.4240863315        3.6537472691
 O       -10.2142846200       -4.0991987311        2.9014162229
 C       -10.1742297324       -2.6856001504        4.8763909283
 C        -9.3008940112       -1.7242549808        4.1076725403
 O        -9.7549788395       -0.7454412726        3.5370685059
 C        -7.6977377574       -2.0338403726        3.8150546057
 C        -7.1456386155       -0.9802827110        2.9191552246
 C        -7.5973841105       -0.9715585946        1.4613815820
 O        -8.1205906585       -1.9128606200        0.9842432031
 C        -7.1246055758        0.2519734902        0.4074330821
 C        -8.4743381549        0.9355110606        0.2413880676
 O        -9.3516799918        0.3538909902       -0.2634873750
 C        -8.5874383514        2.4583610705        0.7145227570
 C        -9.9524355777        3.1496060336        0.7378603604
 C       -10.4524374094        3.9075942008       -0.4615149238
 O        -9.6846503697        4.3873164031       -1.2249130192
 C       -11.9430289711        4.2962777450       -0.4832102527
 C       -12.0286818261        5.9011164392       -0.6162317514
 O       -12.7069125549        6.5065157377        0.1310510352
 C       -11.3493212157        6.6380706667       -1.7412510635
 C       -10.7886689738        8.0226324375       -1.6371825756
 C       -11.7705314636        9.1198652266       -1.8658346182
 O       -12.8609266799        8.8846138917       -2.2830789013
 C       -11.4450096343       10.6967954710       -1.5181003109
 C       -10.3354114284       11.0550762433       -2.4739937258
 O        -9.9218189296       10.3351252870       -3.4070578964
 C        -9.6040337482       12.2822090839       -2.2041637011
 C        -8.3465634977       12.5266295211       -2.9511572161
 C        -7.9640011280       14.0168782508       -3.0633319476
 O        -8.5333737272       14.9151737001       -2.4930699599
 C        -6.5844430392       14.3928013264       -3.6608169048
 C        -6.2832447743       13.8491409098       -5.0934116463
 O        -7.1974499829       14.0346448053       -5.8484428265
 C        -4.8305793584       13.8315923296       -5.6543658112
 C        -5.9053967336       15.7981957450       -3.5437543531
 C        -5.7759539258       13.5105365905       -2.5891854121
 C       -12.8326659065       11.5325158679       -1.7646103718
 C       -11.1223861262       10.8044493722       -0.0104865506
 C       -12.7102947793        3.7077870390       -1.7080483245
 C       -12.7792362465        3.9324311020        0.8374751583
 C        -6.0432629796        1.2082882225        0.9264130904
 C        -6.5747900488       -0.5572891286       -0.7927157633
 C       -11.1494947153       -1.9266211430        5.8453853407
 C        -9.3723196238       -3.7539017911        5.6377343455
 C       -12.6207994085       -5.0350291407       -1.7125302535
 C       -13.0744058162       -6.5288455926        0.3648490176
 H        -9.2121184119       -6.6955347944       -0.7310543487
 H       -10.7988120686       -7.4154067678       -0.5106929336
 H        -9.7547785675       -6.7646843931        1.0553152443
 H       -13.1692787380       -5.1575958407        2.5464981642
 H       -14.2333447712       -3.8712236422        2.2202750448
 H       -13.1771507476       -3.4098385691        4.1074068532
 H       -12.4919217572       -2.0230680044        2.9805488017
 H        -7.4368337632       -3.0121603584        3.4525837155
 H        -7.2235242965       -1.9489571148        4.7786346077
 H        -6.1006959435       -1.0628746993        3.0708886759
 H        -7.3602321653       -0.0338478287        3.4526900710
 H        -7.7782564292        3.0682256757        0.4219078610
 H        -8.1321332993        2.3802659498        1.7964507078
 H        -9.7279990691        4.0845751321        1.2889721771
 H       -10.6361398906        2.5253922581        1.2110113241
 H       -12.0947729601        6.8613810576       -2.5607794733
 H       -10.8261892116        5.8824608656       -2.3412080443
 H        -9.9612771860        8.2175751096       -2.3040590276
 H       -10.3804413797        8.0931723532       -0.6429484654
 H        -9.6238055926       12.4695032243       -1.1560632769
 H       -10.1806221363       13.2015023661       -2.2987487766
 H        -8.4875592264       12.0456406507       -3.9767737937
 H        -7.5310377451       12.1368867639       -2.3540710948
 H        -4.0831906551       14.2062115235       -4.9156438146
 H        -4.8332285252       14.4688703943       -6.5581716460
 H        -4.3934389289       12.8823189404       -6.0310137362
 H        -5.8830897444       16.2666046469       -2.5204865522
 H        -6.5412474543       16.5701271378       -4.1547423599
 H        -4.9578876172       16.0213222785       -3.9576285898
 H        -4.6563780915       13.7525950280       -2.6511308408
 H        -5.8421881187       12.4649413309       -2.7348867431
 H        -6.1731284959       13.9356404024       -1.7073791377
 H       -12.9040081432       12.2136114795       -0.9475567737
 H       -13.6048561370       10.7427272334       -1.5838457233
 H       -12.9843550479       11.9045299058       -2.7935504249
 H       -12.0845580644       10.7340254570        0.4987084503
 H       -10.5723449134       11.7460905297        0.1865649766
 H       -10.3937545780        9.9426600080        0.3000482418
 H       -12.9573277184        2.6709085320       -1.4829525906
 H       -12.0606921276        3.7703348274       -2.6025765753
 H       -13.5931023849        4.2281476005       -1.7443046569
 H       -13.8636260495        4.1012500305        0.6161818288
 H       -12.3250608479        4.5357854198        1.6283461132
 H       -12.7477593016        2.8880464288        0.9605417567
 H        -5.7975021449        1.9582514265        0.1081651997
 H        -5.0249606208        0.7272301461        0.9383934072
 H        -6.1245705331        1.7234121845        1.8914001133
 H        -6.2673447510       -1.6055120382       -0.5288840796
 H        -5.7525902344        0.0110541832       -1.3199390499
 H        -7.4409393148       -0.6468353564       -1.4834967992
 H       -10.6093420540       -1.3931111675        6.6670501602
 H       -11.8407456997       -2.5939287719        6.3426617981
 H       -11.8026150142       -1.2943147027        5.1978461434
 H        -9.1142628263       -3.3548368925        6.6673185130
 H        -8.4560349399       -3.9441895077        5.1838650443
 H        -9.7154559524       -4.7350559520        5.7561769383
 H       -12.0815826724       -5.7659333893       -2.3243136978
 H       -12.2456967164       -4.0795589649       -1.9359913641
 H       -13.7073891979       -5.1013135998       -1.8351465302
 H       -12.9611276669       -6.7879606878        1.3732314006
 H       -12.7325639753       -7.3931724668       -0.2226630242
 H       -14.1468502954       -6.6123704969        0.1064660918
 Na      -10.1438618476       -1.9531771604       -0.1810414995
