117

 C       -10.1557592134       -6.7999619724        0.0130973488
 C       -10.7371943831       -5.3104894639       -0.0854813773
 O        -9.8957292844       -4.4194326988       -0.2342087181
 C       -12.3215953639       -5.0917404477       -0.0414325504
 C       -12.6087186886       -3.7922445500        0.7862518624
 O       -12.6090963842       -2.6634052532        0.2619218878
 C       -12.9585794882       -4.0014534129        2.3314138654
 C       -12.4133962429       -2.9108943345        3.2222930158
 C       -10.9896658873       -3.2405600865        3.4349165062
 O       -10.3299255250       -4.0575958421        2.8022908654
 C       -10.2536233151       -2.5187725646        4.6688891126
 C        -9.3309428124       -1.5759069933        3.9202425768
 O        -9.9549507554       -0.7658961113        3.2653728776
 C        -7.8010180724       -1.7752964309        3.9784909992
 C        -7.1817071260       -0.6863951104        2.9858702889
 C        -7.4252532685       -1.0069564463        1.5488759712
 O        -8.0062853795       -2.0314149802        1.1797803100
 C        -7.1269580996        0.1760035240        0.5645219452
 C        -8.4977923577        0.9602417893        0.4051673076
 O        -9.4761597332        0.4464710763       -0.2219832664
 C        -8.5825192062        2.3907789731        0.6995512381
 C       -10.0170969366        2.8963912113        0.7986384256
 C       -10.4608254920        3.8793492177       -0.3003861261
 O        -9.5179789838        4.1409759069       -1.0575854019
 C       -11.9185393902        4.3967215792       -0.4983364338
 C       -12.1043832677        5.9770286250       -0.6645790195
 O       -12.8360956526        6.6421566494        0.0348092552
 C       -11.3689408639        6.4699159212       -1.8552657356
 C       -10.7609895450        7.8955510224       -1.5515358038
 C       -11.8147141767        9.0307332926       -1.8117727429
 O       -12.8765849709        8.7166673848       -2.2874527663
 C       -11.3740960221       10.4779468438       -1.4786732040
 C       -10.2590290475       10.9846982080       -2.5161556963
 O       -10.1217636192       10.4848717601       -3.5782971144
 C        -9.6441470001       12.3255814297       -2.3002995633
 C        -8.4826548870       12.5121887690       -3.3420069551
 C        -7.7935627808       13.9469263532       -3.0245709012
 O        -8.4179220859       14.9076887634       -2.6915697391
 C        -6.3461796280       14.2286194915       -3.5915966407
 C        -6.2702865812       13.6921830127       -5.1169744344
 O        -7.2104782681       13.9191378684       -5.8579237497
 C        -4.9690941539       13.1928774334       -5.6980857597
 C        -6.2324973072       15.8312980550       -3.4773396547
 C        -5.2073037508       13.5452828660       -2.8161674715
 C       -12.6400395466       11.4022700911       -1.6118544557
 C       -10.7148130973       10.5543253569        0.0144822282
 C       -12.5084272042        3.7076523322       -1.7494752976
 C       -12.6743684176        3.9116868592        0.8112890289
 C        -5.9133946329        1.0229648350        1.1446003412
 C        -6.6468239457       -0.1697811572       -0.8591252117
 C       -11.1998666511       -1.6043953319        5.5512537106
 C        -9.6569974303       -3.5884462889        5.7175582174
 C       -12.7765185961       -4.6532378047       -1.4863522085
 C       -13.1199233250       -6.3296848306        0.3827439688
 H        -9.1590586093       -6.8508773335       -0.3476767566
 H       -10.7371756307       -7.3954306810       -0.6633325189
 H       -10.1685133916       -7.0789111780        0.9983168471
 H       -12.7571154533       -4.9406723882        2.6958296738
 H       -14.0492171654       -3.9955037320        2.2637905034
 H       -12.9219526679       -2.8224414154        4.1360563701
 H       -12.4831098474       -2.0418820097        2.7404428653
 H        -7.7193793281       -2.8189969795        3.6019283982
 H        -7.4343070263       -1.8770824997        4.9950884823
 H        -6.0685651765       -0.6442537116        3.1690089905
 H        -7.5684030773        0.2254935019        3.4306836125
 H        -7.8798680627        2.7936861405       -0.1734350425
 H        -7.8979623694        2.6917565605        1.4281723839
 H       -10.1273352091        3.3974503624        1.8002292408
 H       -10.7497511635        1.9737528968        0.6370639232
 H       -11.8040338090        6.4759913649       -2.8182587449
 H       -10.5792654445        5.6829834246       -2.0565450905
 H        -9.9695626571        8.0090223186       -2.3294283090
 H       -10.2100869342        7.7379899729       -0.6017669030
 H        -9.3514559348       12.6453838760       -1.2873261480
 H       -10.4917920856       13.0408042373       -2.3140935457
 H        -8.8600985153       12.6480303019       -4.3232762445
 H        -7.8355488179       11.6475428372       -3.3055436690
 H        -4.1255921785       13.0523510125       -5.0606477060
 H        -4.7758821499       13.8817773376       -6.4919916398
 H        -5.0492338475       12.3200839958       -6.2815158236
 H        -6.4333507058       16.1563781431       -2.4542744477
 H        -6.7378986598       16.3951618015       -4.1206086658
 H        -5.2198132162       16.2220694166       -3.6190423511
 H        -4.3865426274       14.1044647654       -2.8350134125
 H        -5.0414699508       12.6233045878       -3.3684905554
 H        -5.5605116372       13.2980073709       -1.8118351458
 H       -12.3269724093       12.4044104868       -1.2460663951
 H       -13.4278414795       11.0497276792       -1.0016041418
 H       -12.9079090515       11.2813632587       -2.6217182484
 H       -11.4356734033       10.0397118358        0.6636007394
 H       -10.6316924353       11.5684393169        0.3631182319
 H        -9.8139008272       10.1382052225        0.0081713682
 H       -11.9876156212        2.7762480317       -1.8595173480
 H       -12.3130624101        4.4322105332       -2.5074932133
 H       -13.6094544027        3.5346071312       -1.6917315418
 H       -13.6889240960        4.2080030955        0.7254462193
 H       -12.1503657427        4.3808250203        1.6199941656
 H       -12.7783466977        2.7985574320        0.8226736366
 H        -5.5517638613        1.7999613419        0.5600157419
 H        -4.9782166909        0.5629267753        1.3936749356
 H        -6.2568339333        1.5964070045        2.0128193399
 H        -7.2014425441       -1.0436886683       -1.1469732146
 H        -5.6556427884       -0.4382687802       -0.8670474676
 H        -6.8424666093        0.5505637452       -1.5826646145
 H       -10.6691000545       -1.1126661429        6.3337503287
 H       -12.0318316107       -2.2011471432        5.9874569933
 H       -11.6452967944       -0.8815303548        4.9010830036
 H        -8.6098040817       -3.7043119706        5.9524016284
 H       -10.1111518820       -4.5754323576        5.4439442672
 H       -10.0824919396       -3.5190388933        6.7674852640
 H       -12.5653471542       -5.5596955397       -2.0412957368
 H       -12.1372370870       -3.7802403800       -1.8478656510
 H       -13.8448892574       -4.3157713022       -1.5362376159
 H       -12.7023209843       -6.7558637257        1.3504183580
 H       -13.2549408593       -7.1098544556       -0.3485367175
 H       -14.1340827545       -6.0270904833        0.6458839612
 Na      -10.2408605793       -1.9779485181       -0.1488015798
