117

 C       -10.3907816098       -6.7101775383        0.0745056063
 C       -10.6572013534       -5.2025822420       -0.0378290115
 O        -9.7971049179       -4.3604124162       -0.0936825881
 C       -12.2494948383       -5.0236244172       -0.0096843063
 C       -12.5716103984       -3.7625405625        0.8532369720
 O       -12.4059181933       -2.6245063782        0.4882715857
 C       -12.9912317975       -3.9648205035        2.2386383991
 C       -12.4586648954       -2.8107639220        3.0689752276
 C       -11.0630353726       -3.2221556812        3.4586590534
 O       -10.4830255545       -4.0462236364        2.8199434992
 C       -10.4218913344       -2.4240455270        4.6900575682
 C        -9.4175472372       -1.5423194655        3.8700674433
 O        -9.8050448708       -0.6549110150        3.1050008118
 C        -7.9121856669       -1.7093167958        4.0223042487
 C        -7.2248763790       -0.7440758936        3.0337657673
 C        -7.4826092670       -1.0611193878        1.6159687952
 O        -8.0420298338       -1.9792223750        1.1540312953
 C        -7.1875234679        0.2340257598        0.6943130670
 C        -8.5020368029        1.0087464243        0.3917941602
 O        -9.3408374061        0.2446035103        0.0025505256
 C        -8.7153778707        2.4463219770        0.7189333288
 C       -10.1090445835        2.7546231486        0.8636327113
 C       -10.4249899677        3.8451267836       -0.3167719451
 O        -9.5133405622        4.1131399174       -1.0848682510
 C       -11.8545773065        4.3260966571       -0.4615029282
 C       -12.0725051224        5.9812097876       -0.7019764404
 O       -12.7411107735        6.6891339034       -0.0266578027
 C       -11.2643257404        6.4602309604       -1.8440873529
 C       -10.7030824873        7.9433673519       -1.6008043030
 C       -11.7963525187        8.9253877366       -1.7876966492
 O       -12.8715790071        8.8616787722       -2.2527540306
 C       -11.2564585510       10.3418856079       -1.4850355341
 C       -10.3733335798       10.9489165604       -2.6762403924
 O       -10.2446908967       10.2816002888       -3.6922168992
 C        -9.6567401318       12.3390973151       -2.3960734552
 C        -8.5368629775       12.6390861774       -3.3950431927
 C        -7.8462124146       13.9419159093       -3.2643531058
 O        -8.3698119702       14.8527453452       -2.7004699297
 C        -6.1869934820       14.1325126608       -3.6635835663
 C        -6.1960436420       13.7641773022       -5.1444225616
 O        -7.2908492804       13.8475983357       -5.7039197531
 C        -5.0612906100       12.9298423924       -5.7259874757
 C        -6.1884004777       15.7205820102       -3.5769650641
 C        -4.9597774439       13.6006241348       -2.8583483082
 C       -12.4741207458       11.3624347240       -1.4748837547
 C       -10.6967792779       10.3717451030        0.0563134091
 C       -12.3035731447        3.5122641160       -1.7613728734
 C       -12.8013727150        3.8920982039        0.8661768299
 C        -5.9369260337        1.1175132083        1.0352859286
 C        -6.7942305099       -0.1742651760       -0.8170771826
 C       -11.3521338850       -1.4682667466        5.3890797297
 C        -9.6711324834       -3.4212054503        5.5565788246
 C       -12.8547340317       -4.5927405630       -1.5103582677
 C       -13.1272787650       -6.1490669130        0.4133845260
 H        -9.3999350107       -6.9637905586        0.0056724166
 H       -10.9631086513       -7.0761941996       -0.7898907713
 H       -10.6446252235       -7.0580683363        1.0266007396
 H       -12.6099787751       -4.9217841779        2.6193392037
 H       -14.0420935554       -4.0782374645        2.1707839184
 H       -13.0523220216       -2.7201544270        4.0184349239
 H       -12.5747575878       -1.8781707110        2.5384205983
 H        -7.5587216111       -2.8175841056        3.9121933816
 H        -7.6663898885       -1.5183646082        5.0849991159
 H        -6.1695006458       -0.8663469767        3.3061405070
 H        -7.4618493313        0.2092562595        3.5288906113
 H        -8.2322857394        2.9312408846       -0.0958038517
 H        -8.0095502017        2.8569200313        1.4690880876
 H       -10.2230671706        3.1761982014        1.8236594283
 H       -10.8083984834        1.8708792850        0.6208957841
 H       -11.9451304022        6.5083153427       -2.6891824533
 H       -10.5167800893        5.7502338657       -2.3852495240
 H        -9.7195249412        8.0460439401       -2.1056797448
 H       -10.4532242487        7.8892363675       -0.5454297109
 H        -9.2212874238       12.3536291265       -1.3844656104
 H       -10.4100125438       13.1125215821       -2.1835383694
 H        -9.0071925880       12.8237988176       -4.4326550702
 H        -7.8664388267       11.7652220556       -3.5200578770
 H        -4.3361247437       12.5911206795       -4.9850922196
 H        -4.6025934873       13.3563674705       -6.6039268776
 H        -5.4048400459       12.0343206497       -6.1867002171
 H        -6.2447830265       15.9754373623       -2.4965947803
 H        -6.8183254624       16.3832092497       -4.1973980447
 H        -5.2873330512       16.1138742577       -3.7791273337
 H        -4.1147391380       14.1709025561       -3.3783570831
 H        -4.9345082280       12.5159478793       -3.1189647525
 H        -5.0676541474       13.7311950289       -1.7594512486
 H       -12.0494945850       12.3518415225       -1.4951612119
 H       -13.0086291200       11.2607267299       -0.5332763233
 H       -13.0858244526       11.0239458815       -2.2873878364
 H       -11.1024902498        9.4941477636        0.4988050082
 H       -11.1590176726       11.1336526913        0.6424347981
 H        -9.6035118049       10.4241976325        0.1507917015
 H       -11.8406435866        2.4562922448       -1.6895974985
 H       -12.1154939320        4.1857810229       -2.6558758572
 H       -13.3751422292        3.4533021647       -1.6368999280
 H       -13.7237729133        4.5016571679        0.7742803001
 H       -12.2582711108        4.1686307220        1.7387960929
 H       -13.1536268717        2.9003654587        0.8336700826
 H        -5.4174748399        1.8014908794        0.4156391213
 H        -5.0336632071        0.5637239353        1.4936977211
 H        -6.2242627229        1.7880991728        1.8473737195
 H        -7.6537379963       -0.4953253203       -1.4452943163
 H        -6.0863691807       -1.0465118568       -0.8585739474
 H        -6.3283165413        0.6292714784       -1.3481958648
 H       -10.8916334775       -0.9887453733        6.2217173422
 H       -12.3215565990       -1.8904868201        5.6733022916
 H       -11.5034366580       -0.6681698991        4.6668525667
 H        -8.7017708751       -3.9010722454        5.1146479266
 H       -10.3246332543       -4.1521066756        5.8830032231
 H        -9.2236428567       -3.0201685773        6.4964699713
 H       -12.9055705088       -5.5554375712       -2.0915449883
 H       -12.3250662008       -3.7638495952       -1.9680340388
 H       -13.8646631808       -4.1256355914       -1.2864931742
 H       -12.7115857993       -6.8196431081        1.1481350164
 H       -13.3983019618       -6.7524529041       -0.4392020742
 H       -14.1314417079       -5.8522544519        0.8706732728
 Na      -10.1685966325       -2.0496843492       -0.0320637323
