117

 C       -10.4181926806       -6.6905943279        0.0843040575
 C       -10.7917406685       -5.2508730256       -0.0778296831
 O        -9.9304585831       -4.3726797583        0.0085787343
 C       -12.3384718866       -4.8508577265       -0.0678054606
 C       -12.5020786634       -3.6103877948        0.8903384863
 O       -12.0526752386       -2.5188018965        0.5336949981
 C       -13.3043286123       -3.8825089276        2.2418816595
 C       -12.6619665105       -2.8581810828        3.1641821956
 C       -11.1866254013       -3.1595364139        3.5778363796
 O       -10.5689385604       -4.0185566970        2.9479553336
 C       -10.4800602277       -2.2534365358        4.5937517171
 C        -9.4084388474       -1.3836697858        3.7835711000
 O        -9.7607416998       -0.5435706977        2.9601955892
 C        -7.9075525834       -1.6308483419        4.0236421513
 C        -6.9914245219       -0.7814416628        3.1064631796
 C        -7.4366801671       -0.8644614963        1.5629976020
 O        -8.0443310766       -1.8836755046        1.1613105133
 C        -7.0595949897        0.1918224131        0.6135287268
 C        -8.5437697000        0.7889215611        0.5101426373
 O        -9.5079520196        0.1863534359        0.2078232721
 C        -8.6938459348        2.3306924243        0.8535054639
 C       -10.1501688716        2.8273166063        0.8238016548
 C       -10.4661225047        3.8905455282       -0.2369359789
 O        -9.7192894573        4.1940638365       -1.0708902686
 C       -11.9419732948        4.3058215079       -0.4241029064
 C       -11.9425701190        5.7649217044       -0.7995442784
 O       -12.5838466950        6.4765747912       -0.0066763030
 C       -11.1710654016        6.4008633861       -2.0089315554
 C       -10.6746466213        7.9044576387       -1.6914484439
 C       -11.7027572267        9.0143028613       -1.8045491171
 O       -12.8480910019        8.7563243838       -2.2604033293
 C       -11.2710131910       10.4780744646       -1.3994622538
 C       -10.3089315403       10.8999019688       -2.6029175406
 O       -10.3550234952       10.2144254558       -3.6429436237
 C        -9.5277851192       12.1686938439       -2.5781526421
 C        -8.5270301818       12.5049525043       -3.5972055509
 C        -7.7255219334       13.9266700603       -3.1081085147
 O        -8.4126139923       14.8126698538       -2.6418616938
 C        -6.0854463338       14.1647895473       -3.6288009766
 C        -6.3055781269       13.6092160813       -5.1470429131
 O        -7.3014849635       13.8156085197       -5.8235701289
 C        -5.2160022589       12.7015131112       -5.8552867880
 C        -5.9278998079       15.7198511895       -3.7663871802
 C        -4.9951822836       13.6344111883       -2.7664183561
 C       -12.4974669858       11.4629808515       -1.3008328480
 C       -10.5504379482       10.3325891447       -0.0675206485
 C       -12.2917367258        3.4099860364       -1.6499553634
 C       -12.8952229299        3.9963922851        0.6983580325
 C        -6.0074410573        1.2083346999        1.1573952419
 C        -6.8329279036       -0.4569988260       -0.9002649659
 C       -11.5009790781       -1.3838730255        5.2667188494
 C        -9.7501417744       -3.2603525655        5.4891752591
 C       -12.7385766412       -4.4831123691       -1.5901967464
 C       -13.1587937013       -6.0248304801        0.4345718368
 H        -9.2041680274       -6.6557531466        0.1617531467
 H       -10.7840788776       -7.2194245653       -0.7646125355
 H       -10.5962571709       -7.0752535639        1.1471817466
 H       -12.9733107897       -4.9482890501        2.5355030904
 H       -14.4004231806       -3.9186933971        2.0398667585
 H       -13.3182667568       -2.4928237014        4.0169757165
 H       -12.6693084247       -1.8775556183        2.4064152112
 H        -7.6587334848       -2.7039813426        3.9145098387
 H        -7.7070529313       -1.4914913227        5.1240332723
 H        -6.0314370382       -1.1083468586        3.3807208036
 H        -7.1001237162        0.1235047610        3.6668235737
 H        -8.0072748646        2.7938617235        0.3248937810
 H        -8.2516360492        2.5340468489        1.8774998700
 H       -10.3892681328        3.1900118522        1.8255518488
 H       -10.8260024571        2.1246509473        0.5445393667
 H       -11.9525502718        6.4455828222       -2.8630800343
 H       -10.4026820020        5.9624246011       -2.6383156213
 H        -9.8175004346        7.9686517314       -2.3257961709
 H       -10.2104292845        7.7765811691       -0.7384791671
 H        -9.0343706797       12.3436406536       -1.5931726826
 H       -10.3707045708       12.8867821863       -2.4923617318
 H        -9.0012201680       12.7084582046       -4.6326668943
 H        -7.7136497547       11.7072219545       -3.7579108387
 H        -4.4578015091       12.3604177846       -5.1533963000
 H        -4.7640543839       13.1976877557       -6.7355534172
 H        -5.5431369643       11.7622242573       -6.3754676191
 H        -5.7916583581       16.1856491357       -2.8347395428
 H        -6.6408902982       16.3789938464       -4.3932001862
 H        -4.9317434479       15.9855587470       -4.2574771690
 H        -4.0732684941       13.5840139763       -3.5180719251
 H        -5.3258243259       12.6659409243       -2.2912427587
 H        -4.8468625672       14.3834768067       -1.9459836999
 H       -12.2380663340       12.4777870353       -1.4224928481
 H       -12.9687629425       11.2794393909       -0.3127012834
 H       -13.1167892174       10.9580701441       -2.0705239464
 H       -10.6888148039        9.3523292516        0.3390505003
 H       -10.9263114374       10.9579946232        0.7520563616
 H        -9.4122418319       10.5311199040       -0.3185676843
 H       -12.0765657648        2.3764629446       -1.2719916679
 H       -11.6868379149        3.8435394455       -2.4786362145
 H       -13.3758230526        3.5551008762       -1.8995150861
 H       -13.8058216078        4.6102561405        0.6378194898
 H       -12.3623620803        4.1856171145        1.6372076850
 H       -13.1742827059        2.9744912129        0.6301973070
 H        -5.4854311846        2.0978800754        0.6787533701
 H        -5.1149831158        0.6150352991        1.4218096822
 H        -6.2905927690        1.6585398724        2.1409714778
 H        -7.7956743915       -0.4731300753       -1.4612149733
 H        -6.5687098051       -1.5833485957       -0.8334550050
 H        -6.0551617110        0.0207436049       -1.6355507044
 H       -10.9309092812       -0.9332381655        6.1259891830
 H       -12.2598925908       -2.0149426656        5.6287818574
 H       -11.8740189327       -0.4899480510        4.7328110368
 H        -9.5017754143       -4.2002495798        5.0359479071
 H       -10.2013664841       -3.4002421586        6.5088995473
 H        -8.7571122333       -2.9793261230        5.6476196553
 H       -12.6580747781       -5.4342728231       -2.1384254722
 H       -12.2298169752       -3.6224511692       -1.9642479212
 H       -13.7369548276       -4.0774274456       -1.5176122509
 H       -12.6920614638       -6.3971618703        1.3011504218
 H       -13.0105772959       -6.8604770319       -0.3103866168
 H       -14.2167962320       -5.9491662664        0.6705633709
 Na      -10.0072139572       -2.0775249645        0.1309499029
