117

 C       -10.5438802970       -6.6778307212        0.0602882930
 C       -10.8185998518       -5.1794730610        0.0956629105
 O        -9.8616971926       -4.4263264366       -0.1059186338
 C       -12.3459562091       -4.6650227431       -0.0281721666
 C       -12.5656216986       -3.4519077649        0.9585569348
 O       -11.9143281633       -2.4534059971        0.6954132854
 C       -13.6235497663       -3.3257815654        2.0189046749
 C       -13.0178103723       -2.6376167193        3.3970871747
 C       -11.5130214938       -2.9382856314        3.6686686717
 O       -10.9898695258       -3.8436524457        3.0406585424
 C       -10.6793814873       -2.0123731253        4.5836336163
 C        -9.4743176384       -1.3350772554        3.8472110415
 O        -9.6027789661       -0.4529807605        2.9572739168
 C        -8.0383477123       -1.5869520283        4.2595890242
 C        -7.1208898972       -0.7406301435        3.3228506075
 C        -7.1698786236       -1.0815075309        1.8554432409
 O        -7.4569507837       -2.0906098133        1.3793178459
 C        -7.2305837235        0.1305625666        0.5865643611
 C        -8.7340145931        0.8211157627        0.6151981784
 O        -9.6271798940        0.1989258564        0.1208531959
 C        -8.8995347111        2.2697845892        1.1584058886
 C       -10.2660912251        2.8177090928        1.1738195737
 C       -10.5082986737        3.7703460150       -0.1863219204
 O        -9.5892068854        4.0910371501       -0.8343163881
 C       -11.9463484993        4.1211058767       -0.5807958200
 C       -11.8448253788        5.7673993979       -0.9308810614
 O       -12.0938202686        6.4516362843        0.0560097742
 C       -11.3880249363        6.3083354891       -2.2999764320
 C       -10.5962432128        7.7401800350       -2.0821944583
 C       -11.5565059933        8.8889168605       -1.8319397527
 O       -12.7876806732        8.8408983282       -2.0306406027
 C       -11.0173664583       10.3093345634       -1.4174260641
 C       -10.1342537369       10.8895046745       -2.6845694313
 O       -10.0815110577       10.3854375918       -3.8366609044
 C        -9.5272277349       12.2819010190       -2.3696242681
 C        -8.4076753706       12.4907269389       -3.3777337636
 C        -7.6835552942       13.7728273985       -3.1734035926
 O        -8.0394616963       14.6396493513       -2.3774572000
 C        -6.3900314519       13.9606517860       -4.0059216669
 C        -6.4812705273       13.1632705944       -5.4014165059
 O        -7.0644950494       13.7044797963       -6.3199078029
 C        -5.3691411691       12.2679237726       -5.7884988517
 C        -5.9774907837       15.3688973538       -4.1425491598
 C        -5.4309844319       13.2555003212       -2.9901928444
 C       -12.3203255181       11.1599878931       -1.1873056904
 C       -10.1734614293       10.1913754029       -0.1570464497
 C       -12.4325307595        3.5948213936       -1.9318968346
 C       -12.9767295936        3.9066258993        0.5407416830
 C        -6.1878761608        1.1561464473        0.8087257641
 C        -7.1634286636       -0.5632251826       -0.7924979129
 C       -11.3677613547       -0.6938667383        5.1203654850
 C       -10.0286279068       -2.8974323138        5.6738665653
 C       -12.3799586842       -4.2096477399       -1.4565426900
 C       -13.3858697734       -5.8397644260        0.1408994044
 H        -9.4600529219       -6.9235966487        0.0098313853
 H       -11.1202240238       -6.8693259383       -0.7103194717
 H       -10.8550111652       -7.1261019786        0.9169188241
 H       -14.0523328530       -4.2868044866        2.2655747903
 H       -14.3272038795       -2.6693697971        1.6661888899
 H       -13.6333322400       -3.0785937452        4.0873590183
 H       -13.3411265924       -1.5776050810        3.5180048106
 H        -7.5478119135       -2.5661188394        4.5043528340
 H        -8.1670274059       -1.0809343817        5.2266853279
 H        -6.0822515211       -0.9754907016        3.6521799610
 H        -7.3101151627        0.3534356788        3.5798845108
 H        -8.2541935701        2.8578871276        0.5183573044
 H        -8.2539406544        2.3176361659        2.1461461018
 H       -10.5792832700        3.4509546506        2.0202395706
 H       -11.1384973201        2.1299342377        1.0699641860
 H       -12.2044501963        6.6320564870       -2.9186854728
 H       -10.9107197670        5.6193562003       -2.9787552438
 H        -9.7992890477        7.9502432913       -2.8601862198
 H       -10.0490591800        7.5537602927       -1.1438628863
 H        -9.2003023228       12.4495445597       -1.3336910184
 H       -10.3332847449       13.0023523161       -2.6295529325
 H        -8.8880030643       12.5107443616       -4.3728221209
 H        -7.6752711284       11.7769588406       -3.6044944034
 H        -4.8312964515       11.6257872277       -5.1411347712
 H        -4.6887157401       12.9442706488       -6.2922644393
 H        -5.6402688507       11.6982213973       -6.6416972044
 H        -6.3022509847       16.0513413028       -3.4446865643
 H        -6.6264465535       15.7376769427       -4.9715845410
 H        -5.0140648253       15.6227048963       -4.4423962838
 H        -4.6753685583       12.5917081752       -3.5054304407
 H        -6.0203517594       12.7326947704       -2.3530198060
 H        -4.9200531297       13.8873654459       -2.3580429630
 H       -11.8891784367       12.0604041590       -0.8591655855
 H       -12.9244677333       10.6757226554       -0.4205951643
 H       -12.7990076740       11.3167771229       -2.1517600841
 H       -10.7921932803       10.1425275324        0.6540190548
 H        -9.5969358421       11.0397004493       -0.0226632380
 H        -9.5470952395        9.2550551728       -0.1590423861
 H       -12.9728077390        2.6757626845       -1.6879851172
 H       -11.7063647435        3.3712273206       -2.7229829279
 H       -13.0683454936        4.3607205341       -2.2384582124
 H       -14.0028155237        4.1454980861        0.1014879502
 H       -12.8521124184        4.6572590777        1.3412824260
 H       -12.8624082231        2.9469907818        0.9686155232
 H        -6.1271083938        1.8383021252        0.0039103143
 H        -5.1529249021        0.9329957705        0.9427105668
 H        -6.3658449879        1.8134815791        1.5912453142
 H        -7.5926169074       -0.0054896905       -1.5158043601
 H        -7.4385077823       -1.5482851266       -0.9540434024
 H        -6.1351741214       -0.5179568291       -1.0608182798
 H       -10.6397540407       -0.1457841283        5.6726430730
 H       -12.2526283294       -0.8666402621        5.6923815340
 H       -11.5322894686       -0.0217351032        4.2664263459
 H       -10.6011477876       -2.8995663687        6.6696535062
 H        -9.0054634014       -2.5942311809        5.9572387710
 H       -10.0786167769       -3.9405147345        5.2997399302
 H       -12.0105060131       -5.0674327964       -2.0751428332
 H       -11.7785419177       -3.3367447423       -1.4797616855
 H       -13.3363252270       -3.7724685923       -1.7940820821
 H       -13.4827644715       -6.2849597580        1.1188768081
 H       -13.2159233228       -6.6385391571       -0.6164081407
 H       -14.4012807629       -5.3598146821       -0.0569773743
 Na       -9.5525296879       -2.0708248253        0.4311199970
