117

 C       -10.9178535474       -6.4998733737        0.2233540979
 C       -11.0134596179       -5.0146902113        0.1945264919
 O        -9.9214797908       -4.4085609599        0.3890814816
 C       -12.2941294515       -4.2516762367       -0.0467059236
 C       -12.5080712725       -3.0062582447        0.9140263989
 O       -11.9036850585       -1.9702722884        0.6862196440
 C       -13.5482131381       -3.0702412684        2.0904192824
 C       -12.9954001707       -2.1702320116        3.2634875308
 C       -11.6012293557       -2.4785373461        3.7458869989
 O       -10.9839681989       -3.4287335476        3.2866931128
 C       -10.8785099046       -1.5738244614        4.7563341493
 C        -9.6671506798       -1.3117264379        4.0135903543
 O        -9.8755507899       -1.1591221464        2.7833079336
 C        -8.2423160676       -1.3688203292        4.4664867923
 C        -7.3797466722       -0.4364137135        3.3122123221
 C        -7.3310296628       -0.9265558840        1.8423707745
 O        -7.3505236749       -2.0635551157        1.4848546360
 C        -7.3948353219        0.2064421666        0.7470302607
 C        -8.7751264881        0.7184740700        0.6721019290
 O        -9.6716050956       -0.0192796339        0.3060192460
 C        -9.0993225508        1.9925374910        1.3212528904
 C       -10.4440757437        2.5568961290        1.1045956799
 C       -10.5779458684        3.3840457601       -0.2629879515
 O        -9.6491551196        3.6779623590       -0.8942235383
 C       -11.8642929291        4.1407307633       -0.6942148013
 C       -11.4268959145        5.7704379525       -0.9387664412
 O       -11.2421482987        6.3838240119        0.1162007853
 C       -11.1046364721        6.1659165872       -2.3954954533
 C       -10.7960004261        7.7011434162       -2.4892244849
 C       -11.6714190683        8.7654374793       -1.9366576027
 O       -12.9519230951        8.6942822312       -1.8226310222
 C       -11.0156455273       10.0601914195       -1.4036450033
 C       -10.0211724819       10.6708542667       -2.6136179519
 O        -9.5700444340        9.8822744687       -3.4237568878
 C        -9.4117455173       12.1277078980       -2.5763718158
 C        -8.6029165264       12.6891491211       -3.8630482039
 C        -7.5855057164       13.7170803542       -3.4393447254
 O        -7.6320914208       14.4079201917       -2.4299718716
 C        -6.0450079895       13.6107497302       -4.3155197700
 C        -6.4656769992       12.8530696985       -5.5921490004
 O        -7.2192291213       13.4019045867       -6.3808023662
 C        -5.7953292241       11.4884577578       -5.9784191568
 C        -5.8528767315       15.0878907819       -4.8358777852
 C        -4.9677593534       13.2255401662       -3.2088183581
 C       -12.2157047266       10.9029724348       -0.7028746569
 C       -10.0293780654        9.7105734714       -0.2544327499
 C       -12.2686712245        3.5469729512       -2.1649567211
 C       -13.0832610770        4.1404536474        0.3211393461
 C        -6.3244219305        1.3766365137        0.7812936199
 C        -7.0761139557       -0.5311847497       -0.5682313432
 C       -11.6029773242       -0.2274650309        4.8829482111
 C       -10.6149888017       -2.3482140128        6.1131385485
 C       -12.1463281463       -3.4868339675       -1.4009395375
 C       -13.4932063019       -5.2117089428       -0.0421301154
 H        -9.8869929530       -6.7099785073        0.3747223374
 H       -11.3575171302       -6.8292870960       -0.6578807527
 H       -11.4846974953       -6.8447174623        1.0112395202
 H       -13.6315829504       -4.0881450321        2.4472783738
 H       -14.3822368198       -2.6707476752        1.6475769640
 H       -13.5965373980       -2.0236695436        4.1007149735
 H       -12.8993522363       -1.1630734662        2.7937001827
 H        -7.8736558351       -2.3690050753        4.6365761217
 H        -8.1375276808       -0.8847044929        5.4257553472
 H        -6.3449545810       -0.5190631697        3.6541782481
 H        -7.7218261078        0.6047438124        3.5351806516
 H        -8.2487456210        2.6688361627        1.0758251308
 H        -8.9450971954        1.7458166701        2.5217344979
 H       -10.8423065771        3.3129266787        1.8796054734
 H       -11.2632532455        1.8418876268        1.2306411364
 H       -11.8318942784        6.0958028195       -3.1485352017
 H       -10.2361286533        5.6266692498       -2.7317580624
 H       -10.6798981388        8.1408571422       -3.5144079300
 H        -9.7566529195        7.8031874074       -2.0902042896
 H        -8.6891767891       11.9233457195       -1.7953601397
 H       -10.2815084442       12.7596405314       -2.4527194075
 H        -9.1957984537       12.9393461528       -4.7267482482
 H        -8.0355184470       11.9635553247       -4.3210432697
 H        -6.4193203423       10.7862836950       -6.5348271125
 H        -5.5186362294       10.8997398109       -5.0873490873
 H        -4.8963786865       11.7088959722       -6.6247113768
 H        -5.6158443829       15.7800567731       -4.1477565209
 H        -6.6861334897       15.6188825788       -5.2910772287
 H        -4.9400087522       15.2000884016       -5.4685838697
 H        -4.3543993209       14.1214887908       -3.0765958007
 H        -4.3323154553       12.4022673911       -3.3292310464
 H        -5.5059142556       13.1857666084       -2.3351017361
 H       -11.7942515252       11.7490871196       -0.2564927081
 H       -12.6152369571       10.1212936970       -0.0390324272
 H       -12.9212284649       11.2269635749       -1.4863176168
 H       -10.3049224254        8.7952146374        0.1916849733
 H        -9.8521828402       10.4755365316        0.4672364111
 H        -9.0466664742        9.3486000855       -0.7516436739
 H       -12.4529318628        2.4870267111       -2.1513775979
 H       -11.4094587669        3.6401578872       -2.7302658804
 H       -13.1051277121        4.0668969106       -2.5879056268
 H       -13.9731770624        4.7207908164       -0.0895615795
 H       -12.7926271913        4.7134232158        1.2682864246
 H       -13.4062082492        3.1453635305        0.6701407488
 H        -6.4165970905        2.0610232854       -0.0534881821
 H        -5.3148810215        1.2720388458        0.9493704227
 H        -6.5161926426        1.9881523071        1.6465759594
 H        -6.3693485220       -0.1809907053       -1.2011513367
 H        -7.9009127555       -0.7777475031       -1.1577954197
 H        -6.7426149242       -1.5184310743       -0.2832763310
 H       -10.9373115196        0.2030986388        5.6667431828
 H       -12.5343935066       -0.3236026745        5.4130937454
 H       -11.7114579126        0.4142880745        3.9439340821
 H        -9.5217454606       -2.2597819751        6.2190300216
 H       -11.0425560315       -3.4868070901        6.1189900076
 H       -11.0676952439       -1.8237670431        6.9303833861
 H       -12.0365247823       -4.2704819149       -2.1549422469
 H       -11.2051562969       -2.9552436450       -1.4231793783
 H       -13.0496406270       -2.9671937675       -1.6722442238
 H       -13.7280381018       -5.5059561344        0.9584792688
 H       -13.4267886550       -6.0225808023       -0.7945671331
 H       -14.3155667803       -4.5378264849       -0.3341884084
 Na       -9.4627852709       -2.2220897712        0.7066374480
