117

 C       -11.4072192952       -6.4794848827        0.3521770251
 C       -11.1890098760       -4.9577659831        0.4095984460
 O       -10.0828816847       -4.3987214955        0.6367016413
 C       -12.4457337032       -4.0046594175       -0.1808646779
 C       -12.5652597893       -2.9375964121        0.8950914095
 O       -11.8680914981       -1.9410808882        0.7389310991
 C       -13.5069905370       -2.9610575929        2.0206116125
 C       -13.1486297505       -2.0641713215        3.2572340525
 C       -11.8662590179       -2.5067636794        3.9260078216
 O       -11.5684498257       -3.6817948197        4.1019345772
 C       -10.9188709604       -1.3886877879        4.6333819028
 C        -9.6596314081       -0.9239616641        3.8721802290
 O        -9.7821670981       -0.4523076807        2.7100531047
 C        -8.2038750441       -0.9703745104        4.4913461196
 C        -7.1468013998       -0.2942499277        3.5661010385
 C        -7.4488620038       -0.7532249833        2.0981382447
 O        -7.5882687882       -1.9358628499        1.8560712001
 C        -7.3382093930        0.2340643325        0.9763525658
 C        -8.8732536733        0.8656908460        0.6553884132
 O        -9.5937531965        0.2075001825       -0.0290328231
 C        -9.2452758200        2.0216447870        1.4836499887
 C       -10.5802041140        2.4965327222        0.9952662341
 C       -10.5646828009        3.2440387689       -0.4376560977
 O        -9.5840971875        3.2315605130       -1.0973125949
 C       -11.7886107078        4.0635312875       -0.8213987151
 C       -11.3232811854        5.6502042530       -1.1807527151
 O       -10.7202315447        6.1692460675       -0.2329513692
 C       -11.3756850519        6.2455399802       -2.4765981878
 C       -10.5410604007        7.6174103524       -2.6328630977
 C       -11.3160877584        8.7238266945       -1.9896035855
 O       -12.5775153429        8.5778363131       -1.9307090596
 C       -10.6761462742       10.0452900094       -1.4580307860
 C        -9.8230148490       10.6533105661       -2.6135462325
 O        -9.4746978847        9.8864351038       -3.5241134722
 C        -9.4429385374       12.1071756741       -2.5486162451
 C        -8.4215540387       12.3868780262       -3.5419246981
 C        -7.3731535762       13.4077648926       -3.3419754820
 O        -7.4315809070       14.3257631476       -2.5219412868
 C        -6.3177767909       13.4659398915       -4.4280261015
 C        -6.7508306788       12.5627367341       -5.7367108020
 O        -7.4257661879       12.9470138743       -6.6450226938
 C        -5.9909875732       11.1590144123       -5.8313454264
 C        -6.0397582117       14.9264416449       -4.7401638927
 C        -5.0443751157       12.8975121214       -3.6629307874
 C       -11.7896419239       11.0930851619       -0.9588251268
 C        -9.7514477918        9.6361581487       -0.1956217435
 C       -12.4421924496        3.2097838688       -2.0003540121
 C       -12.8085634086        4.2971266565        0.3428108695
 C        -6.2570800313        1.3335236272        1.2602211505
 C        -6.8902781384       -0.4614329404       -0.2971039285
 C       -11.6785344512       -0.0520761842        5.0265822000
 C       -10.3890920507       -2.0763744750        6.0878798423
 C       -11.9565782945       -3.5300543809       -1.6066242262
 C       -13.7791297834       -4.8119678623       -0.3601168462
 H       -10.4315218926       -6.9412267620        0.6657646642
 H       -11.6924860326       -6.7152042592       -0.6937138198
 H       -12.3579441959       -6.6613824095        0.9733485403
 H       -13.4747219317       -4.0664673855        2.3963660832
 H       -14.5476297747       -2.6101379578        1.7065680958
 H       -13.8707665323       -2.1651341214        3.9756226217
 H       -13.0537166666       -0.9993631403        3.0339365371
 H        -7.8359727505       -2.0074484607        4.6067300514
 H        -8.2152167556       -0.5880137987        5.4860244807
 H        -6.1120916472       -0.4360947559        3.8229735676
 H        -7.3780186115        0.7491192541        3.5836875025
 H        -8.4611293943        2.7886494684        1.5805400274
 H        -9.4919317213        1.6044521391        2.4627335930
 H       -10.9756381865        3.1640650295        1.7520646159
 H       -11.3790518549        1.6989856115        0.9537879819
 H       -12.3752123290        6.6580258267       -2.5513157907
 H       -11.1637875506        5.7376756643       -3.4511255361
 H       -10.3959205496        7.8590693696       -3.6923634672
 H        -9.5340762635        7.5169161369       -2.2660444865
 H        -9.0097537993       12.1655075943       -1.5485324977
 H       -10.3890797212       12.5850104221       -2.9400648706
 H        -8.8711094645       12.7280954423       -4.5291081067
 H        -8.0314969395       11.3780176658       -3.8725568573
 H        -6.3374984924       10.7374578853       -6.7736847554
 H        -6.4583209887       10.4649639595       -5.1418432127
 H        -4.9061783113       11.0988391207       -5.9221226683
 H        -6.1328513939       15.5795425952       -3.8904993222
 H        -6.8192217613       15.4089106048       -5.4459881064
 H        -5.0908092126       15.3311446609       -5.1110166663
 H        -4.3025697951       13.7590865912       -3.3793486491
 H        -4.3552536591       12.2638567193       -4.2621505285
 H        -5.2911599790       12.4548887601       -2.6525354996
 H       -11.2975044684       12.0111329050       -0.7015224767
 H       -12.2979014018       10.6065450704       -0.1278456310
 H       -12.4515002827       11.2179089332       -1.8136345951
 H       -10.3104158143        9.3220510112        0.6588669290
 H        -9.1145794016       10.4822111417        0.1382686342
 H        -8.9562101177        8.7917105781       -0.4229964053
 H       -12.9013445327        2.2939290128       -1.4855166709
 H       -11.7729032517        2.9237117011       -2.8552199787
 H       -13.3770319876        3.6592788306       -2.3648596215
 H       -13.6896253275        4.8840829563       -0.0067999791
 H       -12.3498415813        4.8118784323        1.1485813810
 H       -13.2845757567        3.4426717211        0.6868389689
 H        -6.1859338840        2.0472731685        0.4264074965
 H        -5.2147811048        0.9363284263        1.1603696528
 H        -6.1249506041        1.8720960164        2.2298808705
 H        -7.0763337110        0.1597690694       -1.1838368037
 H        -7.3544703051       -1.4907989688       -0.6446499079
 H        -5.7281302038       -0.6123694203       -0.3612814118
 H       -11.0536770907        0.6173874507        5.5360071401
 H       -12.4800249626       -0.2819982282        5.7045909098
 H       -12.1826229583        0.2588801835        4.1237567238
 H       -10.2390140249       -3.0906176589        5.8399137370
 H       -11.3059831468       -1.9268302360        6.7381460427
 H        -9.5340453494       -1.7506654006        6.5152019984
 H       -11.4612768591       -4.3782930677       -2.1610137054
 H       -11.1092850183       -2.9065511559       -1.5028337319
 H       -12.8374560120       -3.2752585871       -2.2396426524
 H       -14.0854825728       -5.2968191536        0.5487937595
 H       -13.6140165953       -5.4407040556       -1.2147071272
 H       -14.5255937092       -4.1147989421       -0.7950670400
 Na       -9.6238747175       -2.1249350248        0.5865108942
