117

 C       -11.7161445383       -6.4594506880        0.5677634465
 C       -11.3531556543       -4.9426300902        0.4286904160
 O       -10.3270932173       -4.4653181322        0.7762563541
 C       -12.5079096538       -3.9291899453       -0.2035306374
 C       -12.4786869716       -2.8565248088        0.8610289971
 O       -11.8460030474       -1.8058573242        0.6602508933
 C       -13.2616380463       -3.0643846161        2.1540135421
 C       -12.9101931542       -1.7620509535        3.0885170462
 C       -11.7713140220       -2.4517429498        4.1045094503
 O       -11.8533398733       -3.6685422175        4.2347164899
 C       -10.9394803319       -1.4223718751        4.9031681813
 C        -9.7444042688       -0.8939694304        3.8430857857
 O       -10.2020367917       -0.4710512906        2.8316746963
 C        -8.3527261444       -0.8913799074        4.4910459285
 C        -7.3133416828       -0.2781157823        3.6005653908
 C        -7.3828779547       -0.8105623916        2.2083495451
 O        -7.8633515771       -1.9098560665        1.9490225253
 C        -7.1254820948        0.3422846740        1.0240127162
 C        -8.6184992556        0.8753693161        0.6053329822
 O        -9.3952533838        0.2565085268       -0.1529457945
 C        -9.0712909211        2.1966012794        1.2704066560
 C       -10.5488291276        2.5612269761        0.9841175325
 C       -10.5749024616        3.1897207515       -0.3883374168
 O        -9.6764311219        2.8877479639       -1.2341400490
 C       -11.8427430474        4.1179287927       -0.8223134446
 C       -11.1676546516        5.5322384389       -1.1879358968
 O       -10.3801515263        6.0031628372       -0.4109976261
 C       -11.4225344697        6.0724878472       -2.5471080283
 C       -10.6197384141        7.4464049804       -2.6840365725
 C       -11.4578962211        8.5625518389       -1.9158720224
 O       -12.6062954304        8.5476568785       -2.0222814539
 C       -10.5596034124        9.9132230021       -1.2955866726
 C        -9.7566719488       10.4489949951       -2.5758902080
 O        -9.4329760468        9.8390865466       -3.5561988765
 C        -9.5251876847       12.0865091858       -2.5380496765
 C        -8.4091345355       12.2525132239       -3.7996652653
 C        -7.3216225047       13.3694175753       -3.5450505570
 O        -7.4460234069       14.0413559222       -2.5435369819
 C        -6.0810283768       13.3278601728       -4.5472269163
 C        -6.5642167017       12.5235712200       -5.7589476795
 O        -7.4605605999       13.0634428447       -6.4465900984
 C        -6.2030315956       11.0151189345       -5.8921375447
 C        -5.9822103010       14.7757175366       -5.1589946964
 C        -4.7624632075       12.9320091308       -3.8591757220
 C       -11.6626450974       10.9231477968       -0.8894605244
 C        -9.5692026209        9.6008768173       -0.1406739512
 C       -12.4398090942        3.4787259314       -2.0304724290
 C       -12.8352392718        4.3853805593        0.2276657384
 C        -6.3030095577        1.4500533200        1.4997374654
 C        -6.6417537174       -0.3525654336       -0.2108951258
 C       -11.8391160645       -0.1618875246        5.0784414268
 C       -10.5607008607       -1.9481449370        6.2921172106
 C       -12.0381197262       -3.2514555212       -1.4929826404
 C       -13.8719403599       -4.6106562432       -0.3542621421
 H       -10.7770105094       -6.9664943656        0.9035145592
 H       -11.9243156364       -6.7758545625       -0.3831367023
 H       -12.5584143324       -6.5236258711        1.1168101437
 H       -13.1136321264       -3.8637766416        2.7864075736
 H       -14.3117291492       -2.9229478113        2.0289838235
 H       -13.9348385731       -1.4569832656        3.6066744243
 H       -12.5236136588       -0.9088727744        2.5459938790
 H        -8.0272828015       -1.8852698163        4.7328566850
 H        -8.4377737887       -0.3954727217        5.4887364553
 H        -6.2613096057       -0.5802781957        3.8612358030
 H        -7.3614106747        0.8203743982        3.6750158293
 H        -8.4656718646        3.1555253465        0.9357695985
 H        -8.9377371084        2.0106855472        2.4068543835
 H       -10.8810404970        3.3485379830        1.7162762086
 H       -11.3068647373        1.7456771945        1.0364524070
 H       -12.4183100176        6.1631369628       -3.0149596286
 H       -10.7618616356        5.5629799670       -3.2136306502
 H       -10.5680372194        7.7872801841       -3.7314531961
 H        -9.5504962097        7.2394992337       -2.3750394239
 H        -9.0163937619       12.3297393088       -1.6145444401
 H       -10.4041336316       12.5338792667       -2.8654591110
 H        -8.9051574287       12.3564620151       -4.7433754718
 H        -7.8800432004       11.3144198537       -3.7736235919
 H        -6.9179955274       10.1738391800       -6.0894415311
 H        -5.7307370923       10.7450026020       -4.9268641627
 H        -5.3995501731       11.0300173661       -6.6476809346
 H        -5.5779508795       15.6748975588       -4.6382780338
 H        -6.8537604518       15.0758143071       -5.6406615877
 H        -5.3417876884       14.8346459277       -5.9765888500
 H        -4.7817791954       13.1080604425       -2.8035459696
 H        -3.8807490689       13.2983450712       -4.2956443959
 H        -4.7049876527       11.8862961166       -3.8473263295
 H       -11.1609836903       11.6385270748       -0.1843517950
 H       -12.4563823750       10.3439907979       -0.4253027093
 H       -11.9929470367       11.3504918323       -1.8336432536
 H       -10.1772792095        9.4629096293        0.8154100100
 H        -8.9321675103       10.4849821927        0.0980081936
 H        -8.8876150474        8.8278252171       -0.2521125267
 H       -12.7993143091        2.5361604184       -1.8394546651
 H       -11.7813303900        3.5115333044       -2.8620850671
 H       -13.3088934179        4.0334279673       -2.3357410927
 H       -13.7086338429        4.8265194318       -0.1769882444
 H       -12.4730622464        4.9778219609        1.0797623764
 H       -13.4133361187        3.4570746754        0.5462664496
 H        -5.8480751258        1.8835113388        0.6359073078
 H        -5.3997083977        1.3095343636        2.1013226631
 H        -6.8446498442        2.2284415251        1.9860259810
 H        -6.8954956607        0.1905962219       -1.1238660902
 H        -7.0624911443       -1.2873543231       -0.4036838234
 H        -5.6246226836       -0.4042657395       -0.3244221782
 H       -11.3353236286        0.5190013882        5.8086846644
 H       -12.8385208511       -0.4055341304        5.5160129353
 H       -12.0072599177        0.2251562308        4.0964235294
 H       -10.2402446738       -3.0401086203        6.3563302901
 H       -11.3431700859       -1.6446400163        6.9011982592
 H        -9.6179090058       -1.2957762216        6.5289055763
 H       -12.0516264444       -3.9044548755       -2.3052538610
 H       -10.9572522904       -3.1666139181       -1.4128114508
 H       -12.6322918890       -2.4249655648       -1.7777131567
 H       -14.1308292992       -4.7241482056        0.7092872254
 H       -13.7773984184       -5.6037209589       -0.7851094017
 H       -14.5378459558       -4.0233945574       -0.9468757658
 Na       -9.6179329994       -1.9118153227        0.5260352675
