117

 C       -11.8247294797       -6.2246564594        0.7750564364
 C       -11.5389501850       -4.7182635085        0.3967875906
 O       -10.3932499802       -4.3129547729        0.6182351905
 C       -12.6097048369       -3.7937167098       -0.2659942390
 C       -12.6180239199       -2.5390388834        0.7876651578
 O       -11.9609681518       -1.5751774392        0.4930883408
 C       -13.4744009293       -2.6896929181        2.0344308358
 C       -13.0606599615       -1.8767005453        3.2505141430
 C       -12.0105675282       -2.3758856084        4.4316060466
 O       -11.6841850402       -3.5133871204        4.6109675181
 C       -11.2603108924       -1.2269305047        5.3523467356
 C        -9.9768141551       -0.9153088336        4.2752510918
 O       -10.1795184695       -0.7809532224        3.0459149541
 C        -8.4851526128       -1.0410410084        4.6631336008
 C        -7.5221792138       -0.2352339165        3.7200643619
 C        -7.5063554420       -0.5890074321        2.1293861695
 O        -7.9126344248       -1.6967208716        1.8164270467
 C        -6.9533225437        0.3814704018        1.0780542337
 C        -8.3820072583        0.9763662117        0.5208004439
 O        -9.1868442007        0.2513247059        0.0266806385
 C        -8.9247005429        2.3450673551        1.1061355031
 C       -10.4729802168        2.7807214442        0.9593731805
 C       -10.7046736129        3.0601795319       -0.5903668348
 O        -9.9941200507        2.6856555954       -1.4335886953
 C       -11.7744997280        4.0788909040       -0.9553056663
 C       -10.9705324263        5.3952961568       -1.2151786536
 O       -10.1597571695        5.7622180356       -0.3760822262
 C       -11.1969225861        6.0909250291       -2.5873558035
 C       -10.5964954851        7.4939615293       -2.7135041576
 C       -11.4393409963        8.6300637530       -2.0206269304
 O       -12.6675712473        8.4503064911       -1.7731645244
 C       -10.6802017877        9.8911818787       -1.4886667800
 C        -9.7523413463       10.4273131315       -2.7237159694
 O        -9.2699454920        9.5590927177       -3.4290399263
 C        -9.2486279009       11.8522672705       -2.5862511231
 C        -8.4802228484       12.3510223586       -3.7910421131
 C        -7.3228932136       13.4161943648       -3.5820075618
 O        -7.1847224218       13.8333911611       -2.4871824478
 C        -6.0452810394       13.3923205234       -4.7497931093
 C        -6.6050435732       12.4206965377       -5.9686353830
 O        -7.4283984224       12.8138589040       -6.7163684099
 C        -6.0983164829       10.8274249857       -6.0914765500
 C        -5.8878055896       14.8228462398       -5.2367494310
 C        -4.7612475249       12.8518348592       -4.0167988053
 C       -11.6092453381       10.9053788727       -0.7329361883
 C        -9.7045407140        9.2348691791       -0.5669234164
 C       -12.5591313490        3.6282046261       -2.1653015738
 C       -12.7377671492        4.3295300907        0.1926724918
 C        -6.0121457785        1.4716659154        1.6139153843
 C        -6.3025733516       -0.3269565514       -0.1598825760
 C       -12.0846033605        0.0890817921        5.5030671815
 C       -10.6538369372       -1.8707863036        6.6120351808
 C       -11.9791849863       -3.5359792483       -1.7716357785
 C       -13.9760266225       -4.5155210405       -0.4166959760
 H       -10.8976017791       -6.6481082596        1.0969969404
 H       -12.0888735966       -6.7802922499       -0.2659397855
 H       -12.7084689431       -6.1690469670        1.5162494431
 H       -13.5729997183       -3.7659625535        2.4455888688
 H       -14.5059044348       -2.3646203883        1.8385110927
 H       -13.8416656704       -1.6248995170        3.8883779230
 H       -12.6026841647       -0.9145111383        2.8916548603
 H        -8.2603009500       -2.1644136299        4.6949653559
 H        -8.1088686873       -0.6421120686        5.6419709911
 H        -6.5154825466       -0.3178613249        4.1380859099
 H        -7.8823340383        0.7711027747        4.0200834053
 H        -8.5136915705        3.0624319134        0.5105090524
 H        -8.6079014263        2.3101802673        2.1679640523
 H       -10.7001956732        3.6384749452        1.6402618676
 H       -10.9966205091        1.8951947367        1.2617602207
 H       -12.2019198157        6.4349272111       -2.7888178474
 H       -10.8029960909        5.4266128349       -3.4215601532
 H       -10.4668292833        7.8497160948       -3.7283647744
 H        -9.6565197701        7.5042611542       -2.2176484970
 H        -8.4779969707       11.7871507237       -1.7905344101
 H       -10.1046121635       12.5858306646       -2.3789393450
 H        -9.1791336244       12.5220237773       -4.6657127415
 H        -7.7632751491       11.4913942044       -3.9511643190
 H        -6.9871229816       10.3403710536       -5.8325076927
 H        -5.4666795575       10.4567365442       -5.3064575144
 H        -5.7435869401       10.4827851500       -7.0563543676
 H        -5.6891355497       15.5072027371       -4.4765380519
 H        -6.7812973287       15.1796234024       -5.7538767579
 H        -5.1891104464       15.1741989758       -6.0856093853
 H        -4.9673874087       12.0023619097       -3.3975263372
 H        -4.1660113729       13.6283241416       -3.4419320842
 H        -3.8881267982       12.6025146513       -4.7176020548
 H       -10.9863918250       11.6786687496       -0.4556976536
 H       -11.8113298855       10.3723632305        0.1978244912
 H       -12.5432994977       11.1004335846       -1.2435528759
 H       -10.1105123246        8.5809028246        0.1513089743
 H        -9.1122559861        9.8854045785        0.0130119305
 H        -8.9134841549        8.7450149329       -1.1643792202
 H       -13.3213718532        2.8590272054       -1.8498967703
 H       -11.9967225885        3.2228183359       -3.0087498355
 H       -13.0712260065        4.5265152411       -2.5997025761
 H       -13.6174363698        4.8573698648       -0.2497824949
 H       -12.3732585833        4.9459768508        1.0193778058
 H       -13.2531455808        3.4991993887        0.5363635586
 H        -5.8413546375        2.3389732935        0.8951599632
 H        -5.0123208771        1.1230863087        1.8262798930
 H        -6.4396367761        1.9465425778        2.5282107675
 H        -5.8247453417        0.4935262118       -0.7774333961
 H        -7.0105807508       -0.8663617992       -0.7911525257
 H        -5.4127720354       -0.9568601130        0.0422681161
 H       -11.4274276897        0.6530822255        6.1852084846
 H       -13.0087464773       -0.0789288260        6.0210169289
 H       -12.2072395523        0.7413761879        4.5846034681
 H        -9.7886913922       -2.2824761125        6.2887606384
 H       -11.3467558143       -2.6885477222        6.8880942495
 H       -10.4316088894       -1.1660383845        7.3637177739
 H       -12.4794910736       -4.0921956925       -2.6171863376
 H       -10.8870318388       -3.7625265013       -1.9091628273
 H       -12.1770482783       -2.4581435096       -2.0249248209
 H       -14.0538007016       -5.1262729976        0.4540780070
 H       -13.8963343894       -5.2584791217       -1.2400447650
 H       -14.8035622327       -3.7605168019       -0.5043581316
 Na       -9.6350261473       -2.0686504165        0.4870199051
