117

 C       -11.8938319226       -6.0033966890        0.9381832151
 C       -11.5241801414       -4.6457384430        0.4494101198
 O       -10.3440755297       -4.2842834334        0.5076679629
 C       -12.6049737576       -3.6682961759       -0.0635243261
 C       -12.6628124736       -2.4814511714        0.8949691929
 O       -12.1129046794       -1.4471130678        0.4697463410
 C       -13.3807180781       -2.6436196470        2.1947674157
 C       -12.9805401671       -1.6612870766        3.2936573074
 C       -12.1019857624       -2.3060355830        4.3603944762
 O       -11.9851772426       -3.4766736635        4.5586809475
 C       -11.2373313929       -1.3135290430        5.2907825363
 C       -10.0708267828       -0.9776464148        4.1958755725
 O       -10.3676772887       -0.7246035836        3.0631289363
 C        -8.6154001179       -1.0771144905        4.6135690647
 C        -7.7071230959       -0.0237880910        3.6864727959
 C        -7.5775326180       -0.5813791241        2.3657948537
 O        -7.7459014590       -1.7255698581        1.9952005872
 C        -7.0308325297        0.3749627712        1.3701852938
 C        -8.3590824773        1.0405224168        0.7722207531
 O        -9.1528487823        0.3419029175        0.1805798282
 C        -8.5808182864        2.4847589613        0.9762202460
 C       -10.0946079011        2.7725507259        0.7006648289
 C       -10.6048887919        2.9446516772       -0.7654854659
 O       -10.2745253931        2.3427881562       -1.8112793848
 C       -11.7514960910        3.9032335244       -0.9770276061
 C       -10.9553661556        5.3445376950       -1.3523702041
 O       -10.1751181136        5.7245057937       -0.4967054121
 C       -11.3749292304        6.0170738137       -2.6478549548
 C       -10.6966554549        7.3912789042       -2.9388319790
 C       -11.3443393811        8.5069286264       -1.9833389372
 O       -12.4996838644        8.4604205203       -1.6728174054
 C       -10.4322926577        9.7012940582       -1.5226741414
 C        -9.5004436363       10.4433973862       -2.6352332971
 O        -9.1398409756        9.7944842055       -3.5880530021
 C        -9.2299714424       11.9206547195       -2.4505614438
 C        -8.5335623113       12.3400979535       -3.7819018154
 C        -7.1942084516       13.0653341673       -3.6456131930
 O        -6.9245988495       13.7325148090       -2.6604933739
 C        -6.1042502385       13.1198464483       -4.8624625921
 C        -6.5499160822       12.2844574888       -6.1578524116
 O        -7.3498796281       12.8367425668       -6.9549360445
 C        -5.9721136576       10.8786794237       -6.2114977398
 C        -6.1992202268       14.6157376165       -5.2235291006
 C        -4.6585599601       12.7736504449       -4.1911700145
 C       -11.4837026512       10.7886667719       -0.9768951409
 C        -9.4711520227        9.1672560944       -0.3511693330
 C       -12.7283180905        3.4585866952       -2.1311140300
 C       -12.7189722555        4.3167043043        0.2048254660
 C        -6.0519758585        1.5151865200        1.8193612945
 C        -6.2556569755       -0.3426071116        0.1398788463
 C       -12.0137951311        0.0703931080        5.6134952774
 C       -10.8697380724       -1.8383083705        6.7466806656
 C       -12.1771687997       -3.2219626915       -1.5591552489
 C       -14.0714863252       -4.3186687257       -0.2505701223
 H       -10.9631851258       -6.5242857954        1.1235703731
 H       -12.3545501708       -6.4943764907        0.2039072225
 H       -12.4349512061       -5.7586463226        1.8005148631
 H       -13.1879685479       -3.6323245461        2.4905003895
 H       -14.4984465002       -2.6075375363        2.0313078987
 H       -13.6854020769       -1.2662131201        4.0527939712
 H       -12.5084222283       -0.8085805844        2.7800397979
 H        -8.1769015266       -2.0061240671        4.3948017108
 H        -8.3792798965       -0.8495834291        5.6004913271
 H        -6.7359770214        0.1080816122        4.1690236908
 H        -8.2135840566        0.9081012239        3.6437307156
 H        -8.1245832373        3.0955328415        0.0637728468
 H        -8.3337242471        2.6771503901        2.0798443805
 H       -10.1516204667        3.8195004427        1.0322122339
 H       -10.6303810599        2.0120199119        1.3709310939
 H       -12.4232183696        6.3720255245       -2.6592016939
 H       -11.1796572190        5.2975691667       -3.4202981914
 H       -10.9064379491        7.8648492821       -3.9078165094
 H        -9.6112256248        7.2880815090       -2.7148533686
 H        -8.5927902176       12.2451225981       -1.5513785309
 H       -10.1388582923       12.5120072538       -2.4757849050
 H        -9.1538462831       13.0661838650       -4.2488338501
 H        -8.2607271404       11.5058811673       -4.3937740797
 H        -6.6919155506       10.0071558522       -6.0847217528
 H        -5.0816396851       10.7779861587       -5.5804378921
 H        -5.5866764167       10.8625573337       -7.2200370093
 H        -6.3942133385       15.3104074195       -4.3558696818
 H        -6.8898099276       14.9235391087       -6.0259744370
 H        -5.3847408101       15.0597154763       -5.6404993283
 H        -4.2057704147       11.7236560035       -4.1672895662
 H        -4.6841103069       13.0601058906       -3.1649636410
 H        -3.9555395009       13.4837052100       -4.4722215951
 H       -10.9314311898       11.7322389383       -0.6685425390
 H       -12.0358743326       10.4353694868       -0.1267790193
 H       -12.1812477237       10.8242627205       -1.8003063597
 H        -9.9108072796        8.2604380271        0.1344261642
 H        -9.3488341694        9.8341583945        0.5548908507
 H        -8.4095105617        8.9643591240       -0.6220715103
 H       -13.0805110410        2.4439972868       -1.9374278561
 H       -12.2220165776        3.3983707982       -3.1529083514
 H       -13.5043875337        4.1698250177       -2.3137917583
 H       -13.3107018553        5.1604929469       -0.0598690722
 H       -12.1609195670        4.6698196284        1.0527564385
 H       -13.3697781200        3.4970922273        0.6302250693
 H        -5.9408659968        2.2993936501        1.0745122641
 H        -4.9851645430        1.0745702214        1.9804649780
 H        -6.3443601387        2.1242976069        2.7023878908
 H        -5.5344620448        0.1983325376       -0.4288035603
 H        -7.0552616885       -0.7556934323       -0.5586383672
 H        -5.7008962237       -1.2740889613        0.4924141937
 H       -11.4264987426        0.9088889102        5.9613680253
 H       -12.7609689507       -0.2622156812        6.3663195780
 H       -12.4530200095        0.4746382761        4.7405937533
 H       -10.0936357153       -2.6959350195        6.7496773015
 H       -11.8372856110       -2.2367780842        7.1632670359
 H       -10.4689724077       -0.9632112238        7.2471504945
 H       -12.3582292707       -4.1158045254       -2.1456232176
 H       -11.1022198065       -3.0084395981       -1.7245486662
 H       -12.7057144926       -2.3912416054       -2.0683037462
 H       -14.7258287185       -4.6888989380        0.5700497903
 H       -13.8981909303       -5.1548949119       -0.8755188813
 H       -14.5024210407       -3.5066569792       -0.7668653717
 Na       -9.7678438265       -1.9946209607        0.4727468443
