117

 C       -11.9372383540       -5.8521101555        1.0973774221
 C       -11.5394851522       -4.5307126424        0.4279018351
 O       -10.4231265140       -4.1574855850        0.5524249467
 C       -12.6891998286       -3.5268204417       -0.1072353032
 C       -12.7079971500       -2.3072316792        1.0561322094
 O       -12.0614646188       -1.3143968007        0.9200112654
 C       -13.6520069308       -2.6289631457        2.2335304082
 C       -13.2964416350       -1.6043518698        3.2880224535
 C       -12.2248983431       -2.2328770090        4.3242618011
 O       -12.3358392427       -3.4374594062        4.6529586015
 C       -11.3503710752       -1.2976620302        5.0538780837
 C       -10.0863561869       -1.0406258437        4.1924084410
 O       -10.3522384003       -0.5407874436        3.0752009192
 C        -8.6974831995       -0.9619243876        4.8168767869
 C        -7.8204233873       -0.1339958178        3.9840108668
 C        -7.5597712916       -0.6136603693        2.5452078281
 O        -7.7034101104       -1.8290804199        2.3026859349
 C        -7.0016444482        0.3028408607        1.4162957682
 C        -8.2773983430        1.0267892302        0.7177212877
 O        -9.2430408885        0.3528574135        0.3526739397
 C        -8.3944889118        2.5531426140        0.3248599883
 C        -9.8370489424        3.1768051726        0.4199775191
 C       -10.5510762256        2.8735099923       -0.8761008905
 O       -10.3166638798        1.9307898867       -1.5497376667
 C       -11.8608358348        3.8912064240       -1.0639658284
 C       -11.2330712725        5.3700442582       -1.5211657190
 O       -10.3252086706        5.7669747101       -0.8440983225
 C       -11.4858810779        6.1468999878       -2.9307292556
 C       -10.5030941257        7.2929845755       -2.9510872120
 C       -11.1690745059        8.3947536910       -2.0067230031
 O       -12.3332872335        8.3053839682       -1.6895919073
 C       -10.3294432305        9.7341207711       -1.4331735562
 C        -9.5096702981       10.3026354058       -2.6827565143
 O        -9.1356368801        9.5561574643       -3.5456692580
 C        -9.1263875005       11.8120329536       -2.6997674130
 C        -8.5187618863       12.4681189069       -4.0145493443
 C        -7.0169157841       12.9818176698       -3.7223221954
 O        -6.8263063957       13.1927382075       -2.5525551237
 C        -6.0597204067       13.1593978840       -4.9061917006
 C        -6.5288216152       12.1487754334       -6.1173841027
 O        -7.1381371883       12.6894207952       -6.9562294148
 C        -5.8927877635       10.8485093428       -6.5560827276
 C        -6.1994710107       14.7065306720       -5.4087760063
 C        -4.6834064592       12.9261629801       -4.5383718070
 C       -11.3498989750       10.6493749289       -0.7423830283
 C        -9.2963503973        9.3297926424       -0.3206499612
 C       -12.9332715715        3.3656418360       -2.2599524813
 C       -12.5658304828        4.1011166725        0.2792065238
 C        -6.0261551672        1.3760359554        2.0858058717
 C        -6.1656393140       -0.3720955152        0.3375339116
 C       -11.9880302480        0.1213431101        5.3602488394
 C       -10.8276743033       -2.0545223447        6.4162552577
 C       -12.3329550141       -2.8884854360       -1.4277327970
 C       -14.0507564565       -4.3176397812       -0.0023899788
 H       -10.8718985138       -6.3342822177        1.2539899788
 H       -12.5185112907       -6.5863544595        0.4592014061
 H       -12.2612923017       -5.4565732237        2.0958427818
 H       -13.7715770904       -3.7014789795        2.5132516590
 H       -14.6592840475       -2.4497023202        1.9867533570
 H       -14.1717806535       -1.2124852843        3.9082462761
 H       -12.8884272805       -0.7228181784        2.7311818786
 H        -7.9526219750       -1.8121863864        4.9923447189
 H        -8.7337483610       -0.3245547762        5.7644572853
 H        -6.8557698818       -0.2230744211        4.5151097249
 H        -8.1910128807        0.9275865389        4.0341809876
 H        -8.1853562383        2.5701932235       -0.6549918174
 H        -7.8665884070        3.0610581793        1.0634051751
 H        -9.6975663412        4.2328402023        0.7500725146
 H       -10.2846146086        2.5807944352        1.1174218013
 H       -12.5219869876        6.5588548799       -2.9885202373
 H       -11.2720786443        5.5996363243       -3.8827960198
 H       -10.3910577488        7.7418652877       -3.9535529700
 H        -9.5911343477        6.8973823732       -2.5123756999
 H        -8.5173044416       12.0060629998       -1.8309186842
 H       -10.0122165222       12.4700138011       -2.4366678903
 H        -8.9904627733       13.4498576812       -4.1797418413
 H        -8.5593722359       11.7420933722       -4.8270227637
 H        -6.7362081410       10.1943365236       -6.5071858683
 H        -5.1164601665       10.5457896542       -5.8398988569
 H        -5.6170145369       10.7901279409       -7.6558567050
 H        -5.7170070183       15.3213252373       -4.6445648370
 H        -7.0817413914       15.2350128067       -5.5892015277
 H        -5.6594777993       14.8710468520       -6.3936613508
 H        -4.6162690658       12.0076411331       -4.1187607091
 H        -4.2912446022       13.5336524156       -3.7179839819
 H        -3.9910557953       13.0586612308       -5.4113716003
 H       -10.9796256719       11.0543895439        0.1706281416
 H       -12.2007836026        9.9267306210       -0.5995336005
 H       -11.7620533733       11.3444767467       -1.4809864301
 H        -9.8221911159        8.8084246085        0.4688328402
 H        -8.7860819318       10.0863872526        0.2072429873
 H        -8.5356140369        8.6985922749       -0.6591010285
 H       -13.2375694562        2.3832770235       -2.1029280876
 H       -12.4765298735        3.3082145173       -3.1744902698
 H       -13.7586793259        4.0407281557       -2.4677991139
 H       -13.4743564949        4.7603583113        0.3089706008
 H       -11.8919570675        4.6002936058        1.0558570618
 H       -12.7017458146        3.1451456322        0.7620008077
 H        -5.5186207243        1.8969537413        1.2564822150
 H        -5.3924405135        0.9205842958        2.7765018579
 H        -6.5752113469        2.1920523939        2.5369559614
 H        -6.0602593628        0.3858210891       -0.4669722638
 H        -6.6269784449       -1.2252485389       -0.0627391880
 H        -5.2213869041       -0.6380424441        0.6315364441
 H       -11.2724787988        0.7293677225        5.9024590544
 H       -12.9042261227        0.0777392528        5.8676334432
 H       -11.9716778560        0.7030296348        4.4165791421
 H       -10.9524976102       -3.0799811950        6.2382010981
 H       -11.4732172972       -1.8447442768        7.1623295158
 H        -9.7562616919       -1.8224277089        6.6833923200
 H       -11.9661725903       -3.5423525152       -2.1989044265
 H       -11.7387781512       -1.9774818090       -1.3023928006
 H       -13.1648814192       -2.3910068611       -1.8335748271
 H       -14.0889900793       -4.7339905006        0.9673252007
 H       -13.8759439156       -5.2329946647       -0.5870853158
 H       -14.9611971069       -3.7245894546       -0.1470223249
 Na       -9.7795393791       -1.6360272195        0.7710915899
