117

 C       -11.8066761824       -5.7352514788        0.8245084219
 C       -11.6599755153       -4.1511223993        0.6308817906
 O       -10.5711721847       -3.6238417331        0.6734407136
 C       -12.8942941955       -3.2611484520        0.4182244127
 C       -12.9230421056       -2.1797753952        1.5543906158
 O       -12.1083613415       -1.3181703512        1.6982163611
 C       -14.1718390946       -2.0806131453        2.5114283513
 C       -13.8378454493       -1.2435413693        3.7038713433
 C       -12.6070938448       -1.9236988819        4.3476176022
 O       -12.2542059849       -3.0291600315        3.9414604886
 C       -11.6870886703       -1.1840988822        5.4412600246
 C       -10.5304287571       -0.6768440384        4.4665377397
 O       -10.8140135164       -0.0392015821        3.4408259767
 C        -9.1648558365       -0.9518530212        4.6451561719
 C        -8.3273529874        0.1273937381        3.9873880340
 C        -7.7075622064       -0.4678467475        2.7297541839
 O        -7.7283684802       -1.6269447051        2.4164741398
 C        -6.9789631637        0.4082211105        1.5997395876
 C        -8.1252894226        0.9679313197        0.5599954660
 O        -9.2141479481        0.4972140900        0.7679577947
 C        -7.8570679740        2.0344629965       -0.5671699899
 C        -8.8562694335        3.2021446802       -0.4972602848
 C       -10.1894239349        2.8659274347       -1.1812428184
 O       -10.4910743042        1.7129645887       -1.4714449169
 C       -11.3974706946        3.9109326496       -1.3454850263
 C       -10.9621918712        5.4444596261       -1.4928891847
 O       -10.4563138148        6.1075929926       -0.6071327987
 C       -11.2728405259        5.9867263985       -2.9050196549
 C       -10.5794480798        7.3233984366       -3.0927571255
 C       -10.9291763743        8.3469943245       -2.1019812215
 O       -12.1470061132        8.3809417089       -1.7435776551
 C        -9.9274630545        9.4266841410       -1.6858949143
 C        -9.2898964113       10.0838050788       -2.9460184891
 O        -9.0087535137        9.3849080371       -3.9423410964
 C        -9.1643730984       11.6384224704       -2.9842908673
 C        -8.3394532723       12.0634498625       -4.1078693866
 C        -6.7553538875       12.3314825007       -3.9963732029
 O        -6.1349219414       11.7331212811       -3.1906295630
 C        -6.1030484172       13.0035884777       -5.1545683472
 C        -6.4515501572       12.1674894764       -6.4633982540
 O        -7.0769501581       12.5015003441       -7.4005588134
 C        -5.9424756363       10.7180814197       -6.4005370791
 C        -6.8169101303       14.4370847037       -5.2374746451
 C        -4.6218858709       13.0859540454       -4.9242767696
 C       -10.6917907809       10.6163249378       -0.9331727995
 C        -8.7663988561        8.6947637502       -0.8946035565
 C       -12.3918157637        3.4192904410       -2.4898135401
 C       -12.0343785936        3.6835060104        0.0815686956
 C        -6.3314117373        1.5820162937        2.4405773954
 C        -5.9732548004       -0.4817905567        0.7199420590
 C       -12.3750538735        0.0661089392        6.0915440688
 C       -11.3375278354       -2.2033000361        6.5196153669
 C       -12.9654787108       -2.4383746810       -0.9282041684
 C       -14.2065456364       -4.1213091660        0.4785099866
 H       -10.8190324818       -6.1526866585        1.0527285194
 H       -12.1029605200       -6.1071280827       -0.2018405553
 H       -12.4141594399       -5.9270137185        1.6482150827
 H       -14.5413664429       -3.1072798231        2.7331092165
 H       -15.1268985496       -1.6923506512        1.9624379900
 H       -14.5294403244       -1.1192743616        4.4226941997
 H       -13.5564971325       -0.3017934220        3.2345799780
 H        -8.8417262305       -1.9146021277        4.1385804421
 H        -8.8711707459       -1.0363479949        5.7140252348
 H        -7.4908038424        0.1902194587        4.7417670061
 H        -8.6492390152        1.1219748272        3.7334773221
 H        -8.2256278493        1.4153917725       -1.4770159059
 H        -6.8089931130        2.4342839402       -0.4055533326
 H        -8.3902956918        4.0167946444       -1.0005659845
 H        -8.9729857328        3.5008620685        0.6426191422
 H       -12.3723223549        6.0393319730       -2.9729262590
 H       -11.0115399941        5.1435719544       -3.5506292475
 H       -10.7081659300        7.8950385490       -4.0182301292
 H        -9.5311465276        7.1959254620       -2.8645995233
 H        -8.8292761747       12.0522268926       -1.9599828260
 H       -10.1589084942       12.1314847930       -2.8729689005
 H        -8.7460952479       12.9346255593       -4.6116751448
 H        -8.2464370428       11.1628523677       -4.8061626537
 H        -6.4683824841       10.0986828337       -7.1396493727
 H        -6.1163949698       10.2066631624       -5.4523667059
 H        -4.9252571517       10.8064054887       -6.6994876376
 H        -7.4432769244       14.6916166213       -4.4055077507
 H        -7.5836706100       14.5559415423       -6.0872912949
 H        -6.0216588862       15.2378940920       -5.1900239484
 H        -4.0608603970       12.3944506433       -5.5545340012
 H        -4.4427365843       12.9433705553       -3.8168289746
 H        -4.2833031009       14.1509620389       -5.2484877364
 H       -10.0439254657       11.3091580667       -0.3832110112
 H       -11.4735810521       10.2748804744       -0.2670168928
 H       -11.1850305688       11.1360647890       -1.7601053782
 H        -8.9338264967        7.9390264884       -0.2144126628
 H        -8.1794398418        9.3882145914       -0.3822078291
 H        -8.0228130063        8.2430315687       -1.5877997415
 H       -12.6494505834        2.3756637992       -2.2118662020
 H       -12.0070643800        3.3472770861       -3.4733609303
 H       -13.3730695966        3.8354142968       -2.3833073493
 H       -12.7720324724        4.4066366435        0.5417918815
 H       -11.2431989442        3.5478540210        0.8169261170
 H       -12.5146785685        2.7088490041        0.0430148850
 H        -5.7003099846        2.1692178012        1.8096231294
 H        -5.7382470683        1.1467541196        3.2777454627
 H        -7.1997979393        2.0690026370        2.9236730502
 H        -5.6515919754        0.1601837050       -0.1736510675
 H        -6.5862354718       -1.3195258010        0.3959524207
 H        -5.1733843918       -0.8944167104        1.3525451732
 H       -11.8717577997        0.3836645659        6.9764339869
 H       -13.4260214005       -0.1244141343        6.4036283134
 H       -12.5645016902        0.8261467161        5.3270704289
 H       -10.7494209982       -2.9701493375        6.1442666071
 H       -12.1980019929       -2.5875191951        7.0531641998
 H       -10.7365175152       -1.6570846101        7.2761621632
 H       -12.9970918549       -3.1769600511       -1.7555270396
 H       -12.0224790981       -1.9764592989       -1.1796500480
 H       -13.7164626463       -1.6348308511       -1.1379396871
 H       -14.3628593393       -4.6384227779        1.4305715725
 H       -14.2786854919       -4.6862681342       -0.4114391881
 H       -15.0867648447       -3.4451103372        0.3689364724
 Na       -9.9929164063       -1.4788724278        1.2948260387
