117

 C       -11.8531224474       -5.5889572265        0.5810343196
 C       -11.7640798695       -4.1018010845        0.7513082031
 O       -10.7356080136       -3.4232819377        0.8110977095
 C       -13.1474709604       -3.2289715231        0.5006734699
 C       -13.2208602965       -2.1381908463        1.6175332942
 O       -12.3439609352       -1.2413685360        1.4949955562
 C       -14.4165512465       -1.8617889595        2.6051507317
 C       -13.9238521886       -1.3038603505        4.0295640851
 C       -12.6290718109       -1.9452151720        4.4825459721
 O       -12.1058254979       -2.8747928547        3.9462748004
 C       -11.8069395097       -1.1009238432        5.5932262496
 C       -10.8735634618       -0.3972110368        4.6345359401
 O       -11.1731066540        0.4460874478        3.8528203175
 C        -9.3761277338       -0.6613976252        4.8882388148
 C        -8.2940962479        0.0494869289        3.9356325825
 C        -7.7018719898       -0.6142855230        2.5773240372
 O        -7.9799413538       -1.7987730295        2.2301763865
 C        -6.9056926798        0.4513396392        1.6551366342
 C        -8.1909451376        0.9880826807        0.6695350024
 O        -9.3526151004        0.6870353050        0.7654036330
 C        -7.5846106892        2.1249029514       -0.4341473659
 C        -8.7433272281        3.1366184837       -0.7249438867
 C       -10.0361002258        2.5705573077       -1.2580948353
 O       -10.1033494610        1.5222094905       -1.9145285830
 C       -11.2772155652        3.6667049549       -1.2542860430
 C       -10.8901815048        5.1740744454       -1.5444834291
 O       -10.2359671453        5.7716018712       -0.7121692576
 C       -11.3036576277        5.8902499852       -2.8668527682
 C       -10.4282420049        7.0896139268       -3.0328198068
 C       -10.8991916731        8.4176213141       -2.2881836752
 O       -12.0350626337        8.4770654571       -1.9651565666
 C        -9.8617993104        9.4157076212       -1.6319288866
 C        -9.2525339076       10.0943259638       -2.9503795235
 O        -8.9466895572        9.4284490610       -3.9197732679
 C        -8.8934690239       11.6498912676       -2.9019873315
 C        -8.4489098942       12.1273016585       -4.3081323062
 C        -6.9280610012       12.1224064249       -4.2855811026
 O        -6.3600690634       11.4276060326       -3.4365650507
 C        -6.0361487692       12.9688212695       -5.2951983333
 C        -6.2507578569       12.1808691389       -6.6262205939
 O        -6.9726224322       12.6566229678       -7.5303263042
 C        -5.7852471353       10.7445379260       -6.5829234869
 C        -6.6428733617       14.3135503483       -5.5086094416
 C        -4.5706228469       13.1289353330       -4.9168986091
 C       -10.5309668437       10.2385874394       -0.4708600332
 C        -8.6213250859        8.8845958686       -0.9727167628
 C       -12.4572994261        3.0907133154       -2.2177275022
 C       -11.9845868168        3.8475169238        0.2140708518
 C        -6.3969605793        1.6819731545        2.3672371660
 C        -5.7941800846       -0.1135724827        0.7922596046
 C       -12.6913516598       -0.0946233756        6.3446533538
 C       -11.0296359230       -2.0715815662        6.5708229091
 C       -12.8733997987       -2.7630163405       -0.8770998854
 C       -14.4230232842       -4.1221959603        0.4491193793
 H       -11.1703448985       -5.8337649288       -0.1421663531
 H       -12.9303242894       -5.8071786974        0.3688025876
 H       -11.5244853863       -6.0258977729        1.5409755354
 H       -15.0669607740       -2.7060079260        2.6958860113
 H       -14.9875234041       -1.1838005762        2.0600877724
 H       -14.7551192937       -1.5629291024        4.8576965305
 H       -13.8299325396       -0.1849690259        3.9131033702
 H        -9.1431482282       -1.6323785625        5.1233693928
 H        -9.2114254818       -0.1549465377        5.8091680471
 H        -7.4748404294        0.2730835225        4.5808118034
 H        -8.6523549736        1.0460806785        3.5915858426
 H        -7.4164460594        1.5692808763       -1.3398633911
 H        -6.8315906567        2.6043442900        0.1313122744
 H        -8.3681442780        3.7513139545       -1.6260111742
 H        -8.8904141540        3.7959694412        0.0451806178
 H       -12.3866909613        5.8713934846       -2.9973853594
 H       -10.9768475523        5.1595681461       -3.6241235944
 H       -10.3262812725        7.3301341591       -4.1170108488
 H        -9.3644084925        6.7802607239       -2.7728951211
 H        -8.2082180151       11.7440003814       -2.1059901483
 H        -9.5935694518       12.2496071062       -2.3633417986
 H        -8.8208558140       13.0507524612       -4.7687272650
 H        -8.5887138556       11.2493816703       -4.8646204124
 H        -6.1707777540       10.1122580774       -7.3679222337
 H        -6.2818668258       10.3864524311       -5.7110339335
 H        -4.7031201923       10.7668296816       -6.5570042541
 H        -7.3224214544       14.6436355106       -4.6432976998
 H        -7.2031470836       14.4680250819       -6.4054619763
 H        -5.8661586783       14.9904247858       -5.4897244539
 H        -3.9715585883       12.1772067749       -5.1505883698
 H        -4.6440246890       13.3534896337       -3.8780416682
 H        -4.1618149995       13.9602451472       -5.3227532290
 H        -9.8508987862       11.0281285240       -0.1058673401
 H       -10.5199282039        9.5485841821        0.3655371259
 H       -11.4938292086       10.6580641962       -0.6354839672
 H        -8.8952052093        8.4624076006        0.0466673871
 H        -7.7087265583        9.5113550952       -0.7548203778
 H        -8.1743362868        8.0169777011       -1.4665539174
 H       -12.8488043902        2.1505400246       -1.7977889035
 H       -11.9859657713        2.7532159570       -3.2052228204
 H       -13.3857676366        3.6739956721       -2.3313581025
 H       -12.9954162842        4.0752854759        0.1397594999
 H       -11.4389268429        4.5881107228        0.7380828055
 H       -12.0300156719        2.9356575611        0.8374113853
 H        -5.8060086396        2.2152360374        1.5927709057
 H        -5.6111623458        1.3963484119        3.0900989019
 H        -7.2735562272        2.1753074737        2.7910512340
 H        -5.5639952925        0.6421713088        0.0984677127
 H        -6.1716731352       -1.0213407326        0.2558556768
 H        -4.9268378013       -0.3275704713        1.4836214369
 H       -12.1931453899        0.2031889673        7.2873246456
 H       -13.6455730268       -0.4448194910        6.6705938512
 H       -13.0154285528        0.6831955784        5.7062123691
 H       -11.1356795960       -3.1057994542        6.0828112886
 H       -11.5947730306       -2.0988681352        7.5734791848
 H       -10.0028087460       -1.9571479841        6.7993506254
 H       -12.6887027973       -3.3421347879       -1.7728071725
 H       -11.9113557875       -2.1673345000       -0.8714755447
 H       -13.6561509298       -2.0420893567       -1.1652050671
 H       -14.4416931217       -4.7150203969        1.3821800211
 H       -14.5484309835       -4.7676115516       -0.4536641431
 H       -15.3463288382       -3.5774032092        0.3705194675
 Na      -10.0008720203       -1.4570859453        1.3373067087
