117

 C       -11.9254523172       -5.6833357977        0.5602608275
 C       -11.9555967110       -4.0860051714        0.8297161247
 O       -10.9166306908       -3.5780618513        1.1431822477
 C       -13.3058351952       -3.2092956881        0.5614406483
 C       -13.3629832143       -1.9327213824        1.5195028148
 O       -12.6175820467       -0.9995378042        1.4682812234
 C       -14.4384457546       -2.0308690160        2.6312129372
 C       -13.9627524215       -1.3694637462        3.9473374747
 C       -12.5816792341       -1.8627009221        4.4470260704
 O       -12.1234009122       -2.9549056891        4.1318399630
 C       -11.8507330603       -1.0105489317        5.6395714303
 C       -10.8398778263       -0.1530001920        4.8938493043
 O       -11.2197717808        0.9024285544        4.3788282314
 C        -9.2526800305       -0.4876431102        4.8141360162
 C        -8.3378203072        0.2531594827        3.8300880226
 C        -7.7661014230       -0.3917600264        2.5372831721
 O        -8.0725841205       -1.4812249800        2.1530473516
 C        -7.0594015456        0.6631441598        1.7038025905
 C        -8.1182147667        1.2393494107        0.6518561625
 O        -9.2970408367        0.7870655039        0.6715924032
 C        -7.6240005544        2.1428213287       -0.4945235639
 C        -8.5909877550        3.2313369363       -0.7009190041
 C        -9.9919256830        2.5428252654       -1.3481087583
 O        -9.9524382116        1.7295283331       -2.2107589539
 C       -11.2443629159        3.4505809707       -1.1772399337
 C       -10.7608623791        4.8640178298       -1.5801770225
 O        -9.8989962786        5.3510225803       -0.8668686492
 C       -11.1653470192        5.7432405923       -2.8632603532
 C       -10.2543211043        7.0199788525       -3.0385667794
 C       -10.7050272709        8.2470888858       -2.2197614206
 O       -11.9018610079        8.4670504124       -2.0918152096
 C        -9.6923453458        9.2277474191       -1.5688127739
 C        -9.2740503611       10.1304903012       -2.9329336285
 O        -9.0242937469        9.4770624084       -3.9097404340
 C        -9.1565504005       11.7269921599       -2.8589035052
 C        -8.4252980781       12.3350188841       -4.0717980674
 C        -6.8298615728       12.1165332795       -4.2758315313
 O        -6.2509220458       11.1915938796       -3.7464066399
 C        -6.1622358120       12.9137508937       -5.4564921517
 C        -6.1324614508       12.1162749882       -6.8725725880
 O        -6.6839387669       12.5804148830       -7.8064708789
 C        -5.4700007421       10.7625071763       -7.0423230000
 C        -6.5777634340       14.4315647064       -5.5485687443
 C        -4.6784094723       12.9083447008       -4.9473698368
 C       -10.4542054305       10.1601010524       -0.5931487971
 C        -8.3502312316        8.4877706241       -1.1401746823
 C       -12.3415667613        2.8644451043       -1.9899629764
 C       -11.6287081928        3.3298106020        0.3137876594
 C        -6.4177872097        1.8643872915        2.5875964804
 C        -5.9835000105       -0.2433514374        0.9480241654
 C       -12.8622630835       -0.2312142748        6.5397365038
 C       -11.2711453147       -2.1494786069        6.5894144762
 C       -13.1063873418       -2.5151515004       -0.8798066155
 C       -14.5788073463       -4.1156350012        0.6171189101
 H       -12.4014737809       -5.7396845609       -0.5239940850
 H       -12.4416845858       -6.2181162448        1.3322416322
 H       -10.8328512016       -5.9608062472        0.4491033444
 H       -14.6782571971       -3.0774234020        3.0013269656
 H       -15.4332580263       -1.5656947725        2.2594018454
 H       -14.7776530764       -1.5834828335        4.5437008715
 H       -13.9177844526       -0.3273436917        3.8567024717
 H        -9.3196768695       -1.6408638536        4.6491314214
 H        -8.8223536024       -0.4247888782        5.8901121776
 H        -7.3799484627        0.5328062551        4.3790935836
 H        -8.6585822709        1.2707296577        3.5806241277
 H        -7.5168136815        1.4827830827       -1.3851750550
 H        -6.6422141950        2.4867664603       -0.0664381495
 H        -8.1606626964        4.0592936422       -1.1668804355
 H        -8.8108214364        3.5946852918        0.3645927623
 H       -12.2700029600        5.8165686024       -2.8037341505
 H       -11.0941125622        5.1323881187       -3.7939330425
 H       -10.1833780139        7.2124564259       -4.1416695114
 H        -9.2287574496        6.8173243555       -2.8125032286
 H        -9.0047219138       12.0370895921       -1.8064611171
 H       -10.1385625903       12.2462181344       -2.8541304761
 H        -8.5882315562       13.4036838850       -3.9337433353
 H        -8.9144111268       11.9462107656       -5.0263506748
 H        -5.6139975280       10.7358024812       -8.1279966296
 H        -6.1726882471        9.9721447170       -6.6414549516
 H        -4.3686692087       10.6765116575       -6.8254186861
 H        -6.6037156308       14.8900795370       -4.5362876021
 H        -7.5938811791       14.5294404383       -6.0222584050
 H        -5.9319936655       15.0245524142       -6.3333659061
 H        -4.5577580235       12.1813819462       -4.2466017369
 H        -4.4598204506       13.9677748176       -4.7255581936
 H        -4.0579907058       12.6996224166       -5.8729986710
 H        -9.9216528200       11.0662956917       -0.3144970949
 H       -10.6182252293        9.6387476487        0.3908638284
 H       -11.4837039019       10.4449180068       -0.9950821556
 H        -8.4239916658        7.6893609888       -0.4200201118
 H        -7.7264819810        9.1858388142       -0.6331432416
 H        -7.6856118195        8.1336850353       -1.8804498122
 H       -12.8875503422        2.0195077155       -1.6007030868
 H       -12.0184638181        2.6308696120       -2.9268498007
 H       -13.0372420409        3.6897808566       -2.1262347820
 H       -12.7431204835        3.4969711150        0.5092185101
 H       -10.9596414885        3.9796644873        0.9529163138
 H       -11.5486067229        2.3316278402        0.6871431048
 H        -5.6426338182        2.2033639000        1.9495001796
 H        -5.8803429713        1.4706272296        3.3986655630
 H        -7.1747962361        2.6239391716        2.7083728466
 H        -5.4316590652        0.4706538060        0.3445352275
 H        -6.4661013801       -0.9440108286        0.3291753065
 H        -5.4127008091       -0.5858412980        1.6996613915
 H       -12.4434844272        0.3335756099        7.3282323581
 H       -13.5349244051       -0.9358554272        7.0346220211
 H       -13.6496590107        0.3729164372        6.0104655621
 H       -10.3663973414       -2.6101438014        6.2960471069
 H       -11.9988700536       -2.8085477540        6.7330566171
 H       -11.0253587045       -1.6922545640        7.5964973249
 H       -12.5757363372       -3.0706830279       -1.6624279348
 H       -12.4728808719       -1.6825524358       -0.8771385211
 H       -14.0360677814       -2.3780037747       -1.3783904440
 H       -14.7855441418       -4.4419660016        1.6268038921
 H       -14.6457404712       -5.0478359311        0.0652449055
 H       -15.4268711733       -3.5044002834        0.2221795577
 Na      -10.3615523073       -1.2595436957        1.4415086646
