117

 C       -12.0695349175       -5.5424766842        0.5700342005
 C       -12.0246755782       -4.0167598628        0.7847167482
 O       -11.0227098899       -3.5493778440        1.3518945687
 C       -13.2798282118       -3.1784946277        0.4404564502
 C       -13.3776860973       -2.0795137915        1.5647373861
 O       -12.7822133988       -0.9997496525        1.4882360499
 C       -14.4406216739       -2.1994234831        2.7650427791
 C       -13.9287325395       -1.2348822140        3.8877560162
 C       -12.5994369510       -1.8271862837        4.5324747473
 O       -12.1880149070       -2.8664352472        4.1031979486
 C       -11.9140547570       -1.0914220965        5.6610914590
 C       -10.8602541869       -0.1454691611        4.9981024727
 O       -11.1151978068        0.9918030366        4.7022822373
 C        -9.3826702628       -0.7319123530        4.7572884220
 C        -8.5771130546        0.4275116755        4.0832824446
 C        -7.9429796886       -0.1515078071        2.7313400300
 O        -8.3504855660       -1.3035883278        2.4034532617
 C        -7.0607125008        0.6384753335        1.7355261470
 C        -8.0521301790        1.0720648001        0.5807205118
 O        -9.3113420476        0.9253267969        0.5464838412
 C        -7.5528990232        1.9474361903       -0.4909370374
 C        -8.5865908918        3.0459302022       -0.7123687021
 C        -9.8138304526        2.6516802245       -1.4800574844
 O        -9.7341447440        1.7954884487       -2.2573512826
 C       -11.2049549755        3.4859039431       -1.1573200133
 C       -10.7819570692        4.9666975108       -1.5094675296
 O        -9.8372513099        5.4763257991       -0.9126290986
 C       -11.1862509951        5.6783199592       -2.8416102387
 C       -10.1585901248        6.8023047213       -3.0318452232
 C       -10.6740666250        8.1608820874       -2.2954927974
 O       -11.7874780201        8.3613879478       -2.0678796263
 C        -9.6212486177        9.3095676485       -1.6948846412
 C        -9.1802519273       10.0994437968       -2.9748953953
 O        -9.0408715479        9.5326974063       -4.0325537865
 C        -9.1707969537       11.6229844604       -2.8146276597
 C        -8.4459313448       12.3757958316       -3.9690617913
 C        -6.9372000075       11.9584054111       -4.3615799821
 O        -6.3372556468       11.0543886816       -3.7649416413
 C        -6.1376185763       12.7939665210       -5.4967290280
 C        -6.2105671075       12.0982724496       -6.9575833595
 O        -6.6851243096       12.7486645330       -7.9366544509
 C        -5.2952745189       10.7995604797       -7.0717423831
 C        -6.5519210023       14.2411552711       -5.6300081354
 C        -4.5494918688       12.9121046323       -5.0457705388
 C       -10.2240427370       10.1149685479       -0.6319733118
 C        -8.4865151713        8.4902430515       -1.2453346771
 C       -12.3582912361        2.8864564891       -2.1017964052
 C       -11.4544906134        3.1106776968        0.4732642805
 C        -6.2613438894        1.8354364467        2.3674408367
 C        -5.9053796252       -0.0617059977        0.9940781563
 C       -12.8554354769       -0.2259515450        6.4041352267
 C       -11.1738076733       -2.1352547733        6.5861410196
 C       -13.2297756785       -2.4881137127       -0.8771260788
 C       -14.5167010217       -4.0163711007        0.6345245454
 H       -12.9182334080       -5.8285135594        0.0916875831
 H       -11.9405675886       -5.8816445860        1.5873307645
 H       -11.1865182739       -5.8897358252        0.0215946666
 H       -14.5907890729       -3.2020770332        3.3238902861
 H       -15.4431757921       -1.8408107802        2.4047976740
 H       -14.8695784238       -1.1458388449        4.5077224024
 H       -13.8053072693       -0.2760154064        3.4920845483
 H        -9.5445002809       -1.6173252977        4.1219661528
 H        -8.9976742802       -1.1467039227        5.7104064887
 H        -7.7476252394        0.9006259510        4.6223999810
 H        -9.2485595094        1.3073180109        3.9218481372
 H        -7.4951786991        1.2039957661       -1.4391389407
 H        -6.4994899701        2.3196942519       -0.1146192246
 H        -8.0468130153        3.8975722592       -1.3138221043
 H        -8.7915074500        3.5994159985        0.1940544217
 H       -12.2114627530        5.9356706629       -2.9181055020
 H       -11.1545972831        4.8929369211       -3.6484964430
 H       -10.1480239843        6.9059753739       -4.1347955808
 H        -9.1391674921        6.5747163714       -2.8639229099
 H        -9.0796249403       12.0212218066       -1.7889307772
 H       -10.2893584773       12.0024811778       -2.8539883088
 H        -8.3422944533       13.3969100486       -3.5178322096
 H        -9.0427641972       12.3999824067       -4.9512632729
 H        -5.0462860102       10.6540926558       -8.0965577169
 H        -5.9786172716       10.0219662508       -6.7399088982
 H        -4.3421647610       10.8567868350       -6.4845144553
 H        -6.2072282898       14.9289291112       -4.7460292574
 H        -7.6484281645       14.2709555875       -5.7690896772
 H        -6.2764039728       14.6461295223       -6.6204994857
 H        -4.4775788446       12.2841263223       -4.0676260516
 H        -4.3144005460       14.0016363458       -5.0280333459
 H        -3.9390149830       12.5114925471       -5.8434008731
 H        -9.5519202166       10.8463940483       -0.2300759907
 H       -10.5689873504        9.4902306601        0.2457918613
 H       -11.1037612377       10.6618659399       -1.0246717329
 H        -8.7794084078        7.5477542742       -0.8126132030
 H        -7.9217498464        8.9517495598       -0.4532530092
 H        -7.7858780186        8.2793440768       -1.9383904287
 H       -12.7137085869        1.9291076779       -1.8343084522
 H       -12.1003523011        2.9026015508       -3.1642712221
 H       -13.1845204284        3.6152747991       -2.0532776128
 H       -12.4133682988        3.5116547362        0.8201305759
 H       -10.6277139687        3.4024440965        1.1840795006
 H       -11.6548128717        2.0434160606        0.6213913706
 H        -5.5261928096        2.1731894209        1.5969675730
 H        -5.6427859413        1.4267008315        3.1297279866
 H        -6.9714534431        2.6466292931        2.4925279113
 H        -5.3433724881        0.7329024214        0.5299812829
 H        -6.3756160046       -0.7009605540        0.2031345309
 H        -5.2768422647       -0.5461652195        1.7931167422
 H       -12.2996430602        0.3039490174        7.2082648033
 H       -13.6473207685       -0.7505508533        6.9032585464
 H       -13.4222177232        0.5465182137        5.8357159555
 H       -10.0883738434       -2.1184546023        6.4918429814
 H       -11.4889778601       -3.1695021701        6.4090981356
 H       -11.2724622492       -1.9027515355        7.6076657609
 H       -12.8051772679       -3.2764636909       -1.5374685267
 H       -12.4713064875       -1.7354145923       -1.0728122738
 H       -14.1224142283       -2.3804055106       -1.3910008669
 H       -14.3787857354       -4.5818282900        1.5196012618
 H       -14.7528482792       -4.8452884407       -0.0741361520
 H       -15.4166770983       -3.3872342944        0.6425288028
 Na      -10.5292057172       -1.1874683715        1.4809261900
