117

 C       -11.9219712116       -5.4075648040        0.6301704895
 C       -12.1452799297       -3.9520280480        0.9658218421
 O       -11.2217404504       -3.2835474179        1.3172392575
 C       -13.5895664700       -3.2302251048        0.5847407463
 C       -13.6570038459       -1.9340493708        1.6393744871
 O       -12.9152238572       -1.0068916738        1.4274262843
 C       -14.4963981368       -2.0685899086        2.8445435406
 C       -13.9022480931       -1.2284789982        4.0253408366
 C       -12.6129484800       -1.7381790096        4.4851908099
 O       -11.9867365020       -2.7607545073        4.1341183333
 C       -11.9303700418       -1.0427929919        5.8185295290
 C       -10.8634682700       -0.0312520854        5.3092741188
 O       -11.1675520281        1.1385717982        5.2669933374
 C        -9.4030697316       -0.4856364639        4.8558207319
 C        -8.4828345689        0.4233190867        4.0747508421
 C        -8.0670249585       -0.0957133229        2.7449025193
 O        -8.4455767754       -1.1127536686        2.2208402028
 C        -7.1198922038        0.6945917044        1.8546939784
 C        -8.0788122653        1.0527637268        0.6030760390
 O        -9.1716556936        0.6185805709        0.5224607091
 C        -7.5682036806        1.7953799422       -0.5815250491
 C        -8.2406739759        3.0748829711       -1.0626361148
 C        -9.5689987181        2.7391755523       -1.7220729259
 O        -9.5525135024        1.8069981759       -2.5555551199
 C       -10.9065187879        3.4958813619       -1.2283138460
 C       -10.4840712005        5.0440534836       -1.3790769739
 O       -10.0396397878        5.5543999116       -0.3875685813
 C       -11.0151902248        5.6427116486       -2.6445569935
 C       -10.3399239981        6.8702483375       -3.2092032472
 C       -10.6236910432        8.0747593613       -2.3698242796
 O       -11.8203668049        8.2011927970       -1.9703742203
 C        -9.5480176661        9.1053200152       -2.0251607998
 C        -8.9959670974       10.0329511695       -3.2481554344
 O        -8.9849815950        9.5628639683       -4.3701764202
 C        -8.7646876573       11.5212318864       -2.8784652868
 C        -8.3939975075       12.3593652293       -4.1100999614
 C        -6.8671656895       11.9021332652       -4.4913689402
 O        -6.4564302308       10.8954446037       -4.0248645540
 C        -6.0712560710       12.7453998354       -5.4153983266
 C        -6.1232918818       12.0111467458       -6.9463483949
 O        -6.5869994098       12.6283047489       -7.8094688241
 C        -5.4567895703       10.6440631207       -7.3107643127
 C        -6.7945961242       14.1584785523       -5.6652594627
 C        -4.6193283598       12.8682575044       -4.9133894939
 C       -10.1463535002        9.8809247526       -0.7679323143
 C        -8.2685010393        8.3725803854       -1.4600556073
 C       -12.0616738298        3.0282560755       -2.1221048872
 C       -11.2104379815        3.2903433902        0.2315191208
 C        -6.5392558933        2.0599889916        2.4235459211
 C        -6.1762397102       -0.4976413058        1.3383309709
 C       -12.9842174706       -0.2450960117        6.6471359149
 C       -11.4450436360       -2.1784288100        6.7589998850
 C       -13.1857244963       -2.5842798715       -0.7649557727
 C       -14.8588385495       -4.0234275089        0.5001775529
 H       -12.9489238080       -5.9176586751        0.4657922475
 H       -11.1183034110       -5.7425016673        1.2273397413
 H       -11.5381537124       -5.3914037785       -0.4102636587
 H       -14.5118260827       -3.0722335897        3.0896657588
 H       -15.4464469316       -1.7339543352        2.5293089225
 H       -14.6104914138       -1.1877255846        4.8418417187
 H       -13.9659543039       -0.1742968691        3.5311482698
 H        -9.6780802201       -1.3034286634        4.2371581433
 H        -9.0515102812       -0.8999166111        5.7792972945
 H        -7.5627832816        0.7265445616        4.5774311588
 H        -8.8788020857        1.4081560837        3.9286091018
 H        -7.5607713617        1.0599576480       -1.2971973036
 H        -6.5664299085        1.9943713941       -0.3438043945
 H        -7.5738546638        3.4700083470       -1.7228218696
 H        -8.3152533451        3.9109567827       -0.3262636908
 H       -12.1133049083        5.7269920051       -2.4874058586
 H       -11.0347551763        4.8024351512       -3.2889952401
 H       -10.5548375509        6.9728894957       -4.2754885027
 H        -9.2179271414        6.7346976938       -3.2326598107
 H        -8.0757537776       11.6991216236       -2.0296437195
 H        -9.6454904965       11.8999194605       -2.4434980198
 H        -8.5478706066       13.3777107610       -3.7884452408
 H        -9.0254046765       12.1263040173       -4.9380600288
 H        -4.8658868680       10.7611497335       -8.1981972227
 H        -6.1642159626        9.8425492229       -7.3433310085
 H        -4.7631305214       10.5567182319       -6.4879617937
 H        -6.9258964192       14.5799314566       -4.7597056002
 H        -7.6642187166       14.1161346297       -6.3486765490
 H        -6.0875332083       14.7914910415       -6.2275945747
 H        -4.4898711973       12.0156507000       -4.4237728252
 H        -4.6149544748       13.7414437810       -4.2773347562
 H        -3.9713721541       13.1063189962       -5.8077006932
 H        -9.3471321249       10.4672285065       -0.2957071996
 H       -10.6031496828        9.3078197417       -0.0164488754
 H       -10.8835742852       10.6315136219       -1.0163393669
 H        -8.3576515542        7.6364327679       -0.6272270184
 H        -7.5217829903        9.1381196615       -1.0897314534
 H        -7.6644318447        7.7955654892       -2.2485598642
 H       -11.9144710718        1.8912573410       -2.0673049513
 H       -12.0747353837        3.2448998971       -3.1892040913
 H       -13.0781019306        3.3186402986       -1.7923818074
 H       -12.0238587281        3.9580542879        0.5468573251
 H       -10.3617335304        3.3922530221        0.8380097460
 H       -11.5677350905        2.3093815170        0.4417474461
 H        -6.4909097587        2.8495694148        1.6739188744
 H        -5.5476223115        1.8382416036        2.8698893789
 H        -7.4026205698        2.4533321112        2.9749120541
 H        -5.8104532038       -0.2207354183        0.2976451363
 H        -6.8973938416       -1.2940221511        1.3439480481
 H        -5.4039841064       -0.6133397799        2.0478277300
 H       -12.5938276793        0.1130381410        7.5680705767
 H       -13.9185113642       -0.7993621290        6.8973104397
 H       -13.2968795005        0.7038342613        6.2194365454
 H       -10.7687241654       -1.8925074458        7.6023458906
 H       -11.0366986290       -3.0197509295        6.2609242195
 H       -12.3689609221       -2.5183074710        7.4101471719
 H       -13.2397985230       -3.1706566845       -1.6863731900
 H       -12.1826952530       -2.1789132148       -0.7412165491
 H       -13.9716136464       -1.8330162484       -1.0930788041
 H       -14.8723149921       -4.9436986471        1.0996958659
 H       -14.7981012460       -4.5579093487       -0.4275471404
 H       -15.8264170895       -3.5274054001        0.5026708491
 Na      -10.6645572270       -1.0259460365        1.4803798048
