117

 C       -11.8741410985       -5.3938383378        0.6644897265
 C       -12.2606862228       -3.9159120193        0.9062965198
 O       -11.3320435618       -3.1998441211        1.2829329238
 C       -13.5619393601       -3.1416649710        0.5248640406
 C       -13.7290867353       -1.9766632623        1.6692378993
 O       -13.1127754756       -0.9801060587        1.3857569553
 C       -14.6621571650       -1.9754615735        2.8595950246
 C       -13.9586506660       -1.2483178228        4.1405037665
 C       -12.5321785046       -1.7193570750        4.6754814461
 O       -11.8378139118       -2.5411668120        4.1416483118
 C       -12.0134053272       -0.9873353878        5.9515987271
 C       -10.9159824197        0.0826025336        5.4693255074
 O       -11.1047663312        1.2852599058        5.4526546079
 C        -9.4202186155       -0.5303981423        5.1456475468
 C        -8.5955772527        0.3711724796        4.1938596867
 C        -8.1897625649       -0.1510556426        2.7385848917
 O        -8.6528352736       -1.2376055294        2.3591483999
 C        -7.2821389006        0.5983874780        1.8179530244
 C        -8.0907616478        0.9886276111        0.4617798295
 O        -9.3137361022        0.6379185940        0.2889584433
 C        -7.3058944040        1.7120448571       -0.6562550561
 C        -8.0433115007        2.9651339544       -1.1724477434
 C        -9.4524384567        2.5925580541       -1.7606319198
 O        -9.5807315153        1.9101123711       -2.6798839643
 C       -10.7391911014        3.4113596785       -1.2261399732
 C       -10.6227372255        5.0912833498       -1.2950251101
 O       -10.1227114835        5.6872202425       -0.3856210206
 C       -10.9011952430        5.6655138071       -2.7264977442
 C       -10.2532545898        6.8707399357       -3.3860311009
 C       -10.6329993840        8.1728612180       -2.4245317443
 O       -11.6451069564        8.2658671523       -1.8609986054
 C        -9.4384598323        9.1436068616       -2.0749499078
 C        -9.1515987112       10.0246417497       -3.2516552786
 O        -9.0253282881        9.5169944930       -4.3256298517
 C        -8.6784948427       11.3558890248       -2.8259073034
 C        -8.3517909884       12.0480294480       -4.1029735782
 C        -6.9012821729       11.8309605820       -4.5673506877
 O        -6.3292044935       10.8064237552       -4.2085044958
 C        -6.1120148751       12.7452364798       -5.5096942470
 C        -6.1180131578       12.0458930869       -6.9360168007
 O        -6.6511640301       12.5794275205       -7.9459705401
 C        -5.5166216030       10.5522378973       -7.1414979189
 C        -6.6279545737       14.2093658385       -5.7284407107
 C        -4.7266819959       12.9057408035       -4.8639636674
 C       -10.0315094890        9.9545758025       -0.9159128409
 C        -8.2469358021        8.3305431983       -1.7629479465
 C       -11.9481035831        2.9777626389       -2.2439843699
 C       -10.9894859519        3.2439777167        0.3219294697
 C        -6.5947263321        1.9224861667        2.4395111247
 C        -6.0409947176       -0.2836930584        1.4676248903
 C       -13.0984255927       -0.3322621057        6.7680557958
 C       -11.4961598221       -2.1394427376        6.8314989626
 C       -13.1693718797       -2.5541648690       -0.7812937219
 C       -14.8836507168       -3.9541604876        0.5609712899
 H       -12.7168739410       -6.0204840698        0.8672936320
 H       -10.8289818335       -5.4707904161        1.0599769206
 H       -11.7928381475       -5.4986773100       -0.5274124836
 H       -14.9945308990       -3.0177133542        3.1155861196
 H       -15.4655482861       -1.3413835657        2.4580392587
 H       -14.6555785202       -1.2715444645        4.9416416427
 H       -14.0433594407       -0.3054424310        3.8030493866
 H        -9.6787191676       -1.5297916879        4.6488902492
 H        -9.0194208947       -0.7171627053        6.1940246865
 H        -7.6066821355        0.5415786704        4.7121877359
 H        -8.9092473875        1.4054800958        4.2033045062
 H        -7.0110702190        0.9862549300       -1.3883064179
 H        -6.3419560985        1.8884534291       -0.2378541465
 H        -7.4367563344        3.4863959330       -1.8712701511
 H        -8.1470510457        3.7397363210       -0.4302229281
 H       -11.9924073633        5.7977075103       -2.8774790388
 H       -10.7517948290        4.7014001182       -3.2872145931
 H       -10.8053887506        6.9438306102       -4.3684380963
 H        -9.2326874660        6.7478373930       -3.7198306943
 H        -7.8653955874       11.2995540102       -2.0899475117
 H        -9.4682560278       12.0049999100       -2.3389804027
 H        -8.4161525221       13.0630364389       -3.8833588230
 H        -9.1419798394       11.7846183821       -4.8297859695
 H        -4.9222501893       10.7081978031       -8.0015460220
 H        -6.3957380846        9.9418651117       -7.4227042599
 H        -4.8671579401       10.1096951381       -6.2978048818
 H        -7.1349088406       14.4000706788       -4.7855591938
 H        -7.0796972471       14.4429273587       -6.6559177569
 H        -5.7258337494       14.8890980725       -5.6469198291
 H        -4.3015729704       11.9217050423       -4.7942344723
 H        -4.9836173530       13.1705210238       -3.8663039289
 H        -4.2530677931       13.6921833444       -5.3440964796
 H        -9.5229413021       10.7400571662       -0.4605915118
 H       -10.3933353995        9.2917773155       -0.0964276615
 H       -10.9931921424       10.3645305275       -1.2547449136
 H        -8.2655164672        7.6188233034       -0.8589857007
 H        -7.2684026053        8.9041774965       -1.6706779868
 H        -8.0962853025        7.6773730420       -2.5750528026
 H       -12.0115020081        1.8988498705       -2.1125772361
 H       -11.8763236767        3.1136737512       -3.2805762537
 H       -12.9083377722        3.4709915927       -1.9352705199
 H       -11.8491919394        3.8357184182        0.6917971306
 H       -10.0864949818        3.4229904396        0.9341627521
 H       -11.1986049776        2.2377072421        0.5087951644
 H        -6.5341476304        2.7017483460        1.6893438314
 H        -5.6750628645        1.5950869406        2.8106754905
 H        -7.3012294298        2.4307008841        3.0546341023
 H        -5.6304893382        0.0712871572        0.6003880956
 H        -6.4073887741       -1.2528253789        1.4647081013
 H        -5.3870405937       -0.1145077627        2.2416574680
 H       -12.7703351731        0.0607439250        7.6816065011
 H       -13.8684699331       -1.0393256196        6.9815902555
 H       -13.5701106780        0.5975221277        6.3662748840
 H       -11.4682217883       -1.9645376124        7.9043202266
 H       -10.5495282415       -2.4566588793        6.5126052408
 H       -12.1856318426       -2.9913372994        6.8084519547
 H       -13.2721796778       -3.2540983255       -1.6210312250
 H       -12.1733879545       -2.1424980869       -0.8591079919
 H       -13.8914774225       -1.8731363367       -1.1120743919
 H       -15.0861468540       -4.3622934520        1.5124479107
 H       -15.0755857407       -4.8641194191       -0.0493394831
 H       -15.6957736461       -3.2135392945        0.3510303260
 Na      -10.6918025694       -0.9691163329        1.4766815931
