117

 C        -4.4887815750       -0.7239710117        8.6051972004
 C        -5.8284745796       -0.1556712755        9.0317700357
 O        -5.8723785487        0.9301311401        9.5446714293
 C        -7.1662301497       -0.7777972408        8.3674181129
 C        -6.9792371456       -0.0899559809        6.9650447522
 O        -6.5748413111       -0.6901344844        5.9283178141
 C        -6.9360935533        1.4572176448        6.8326682726
 C        -5.7829246824        2.1700803445        6.1844603356
 C        -6.1521605075        2.8227092834        4.8718294498
 O        -7.2191638178        2.7024414737        4.3519505472
 C        -5.1234776609        3.8751778064        4.2932794304
 C        -5.2047965143        3.9783615075        2.7072946303
 O        -4.1737749894        3.8802774600        2.0601306892
 C        -6.5298729011        4.2764052930        2.0018642908
 C        -6.5216353651        4.1987423139        0.4748538240
 C        -7.8577248004        3.7667814302       -0.1250834731
 O        -8.4613763873        4.4750064239       -0.8882368285
 C        -8.2442055126        2.2955334218        0.1778591593
 C        -9.6040350335        2.4299801931        0.8957757366
 O        -9.6719142497        2.7487639447        2.0757734838
 C       -10.8209711772        2.1588179573       -0.0597628028
 C       -12.1477091907        2.6960548279        0.4877146431
 C       -12.5285710055        3.9123360857       -0.2562555017
 O       -11.6386740404        4.7621172132       -0.4760127432
 C       -14.0515025746        4.2940237806       -0.6957037532
 C       -13.9200858494        4.2547496661       -2.2996919930
 O       -12.8869143937        4.2280216085       -2.9644392623
 C       -15.2659217305        4.1398127736       -2.9892314399
 C       -15.3516560101        4.7943584363       -4.3630513204
 C       -15.0692963827        6.2503790718       -4.3370916918
 O       -14.4302431163        6.8505617827       -3.4469477861
 C       -15.2158704903        6.9732126975       -5.6463603623
 C       -13.8903186766        6.6483412926       -6.5804962984
 O       -14.0435511770        6.2085497370       -7.6793928672
 C       -12.5047183311        6.9500172543       -5.9766123833
 C       -11.3255819529        6.0252076108       -6.4969497633
 C       -10.4217829189        5.6128413921       -5.4061322326
 O       -10.7314928522        5.9213405467       -4.2742585136
 C        -9.1477030290        4.7592989129       -5.7477864071
 C        -9.3634105208        3.3604073659       -5.0878653208
 O        -9.4549721837        3.4132067063       -3.8543745957
 C        -9.3431851129        2.1009488822       -5.9760351080
 C        -8.8022028605        4.6838935410       -7.2720238779
 C        -7.9232880149        5.5130590429       -5.1170966034
 C       -16.4472499980        6.6385689125       -6.3788483197
 C       -15.3127252054        8.4929734395       -5.3638226161
 C       -15.0884360611        3.2372345952       -0.1510872066
 C       -14.3895809314        5.7760927082       -0.2662604878
 C        -8.3480339609        1.5366854723       -1.2569055730
 C        -7.2256127207        1.5884713133        1.2080733243
 C        -5.6813754122        5.2275770446        4.7816409458
 C        -3.6902576977        3.6368052122        4.7913420792
 C        -7.2628926072       -2.2886570066        8.1450158815
 C        -8.4784683222       -0.0662348275        9.0087842733
 H        -3.6272401429       -0.1468528881        8.9567354406
 H        -4.4352884189       -0.5935059396        7.5180542364
 H        -4.3203603568       -1.7762147955        8.8551112597
 H        -7.1148966525        1.8213353617        7.8577587892
 H        -7.8506425979        1.8338861329        6.3390601162
 H        -4.9283684620        1.4251661761        6.0193249661
 H        -5.2695524257        2.8549878054        6.8762054534
 H        -6.9557318124        5.2884212092        2.2266242163
 H        -7.2175556898        3.6144245875        2.4903686110
 H        -5.7014957413        3.5369890414        0.2971039422
 H        -6.1819177715        5.0875897511        0.0405263370
 H       -10.8381384159        1.0605850205        0.0307956745
 H       -10.5572019180        2.4665357373       -1.1011900932
 H       -12.1630736620        3.0834023355        1.5748328007
 H       -12.9526777291        1.9841172782        0.3420577765
 H       -15.9987738456        4.4505370322       -2.3329162304
 H       -15.4923344917        3.0505536674       -3.0612266908
 H       -16.2652465284        4.5796638067       -4.8580248856
 H       -14.5825440739        4.3083353581       -5.0074853201
 H       -12.6001610736        6.9350498855       -4.8483321282
 H       -12.1795409192        7.9910273470       -6.2754423336
 H       -10.8460486527        6.5794756080       -7.2566595897
 H       -11.6748654353        4.9923426393       -6.8527203488
 H        -8.2640550057        2.0059809227       -6.2331753462
 H        -9.9288154767        2.1298991836       -6.8923818685
 H        -9.6525652443        1.2236306028       -5.3425585182
 H        -8.4702497140        5.6027804207       -7.6747973718
 H        -9.6172534408        4.3269676979       -7.8405856659
 H        -7.9364969252        4.0104728702       -7.4250807465
 H        -7.7386175073        5.2116460200       -4.1241336064
 H        -8.2239350127        6.5807446576       -5.0263444330
 H        -7.0432790948        5.5081456496       -5.8099049806
 H       -16.5302329287        5.6078306379       -6.6129301317
 H       -16.4215982783        7.1809845581       -7.3095468577
 H       -17.2903696425        6.9334736797       -5.8320012470
 H       -15.3973794858        8.9947791731       -6.3266398339
 H       -14.4384097047        8.8252943685       -4.8960204377
 H       -16.2214769488        8.6534406049       -4.7826466617
 H       -14.8378158130        2.9589041178        0.8308616828
 H       -15.1404419841        2.4496182883       -0.8445351839
 H       -16.0724711561        3.6689831577       -0.1706312335
 H       -14.4593061872        5.8684552915        0.8451465111
 H       -15.2784303213        6.1956213855       -0.7290366617
 H       -13.5643483337        6.3977628136       -0.5045680147
 H        -8.9555657425        0.5610314099       -1.1814085372
 H        -7.3955427064        1.2706854008       -1.5608624573
 H        -8.7123162413        2.2258686590       -2.0876722994
 H        -7.5045609283        1.9434710086        2.1809332827
 H        -6.2606147191        1.9230838938        0.9580474753
 H        -7.3218665240        0.5243594076        1.1105437299
 H        -5.7250738824        5.2389358708        5.8681635874
 H        -6.7216721493        5.4213793793        4.3263529591
 H        -4.9932244087        5.9535348985        4.4146136426
 H        -3.5599738020        4.1130264817        5.7290771259
 H        -3.0154681375        4.1754413324        4.1086436802
 H        -3.3825049268        2.6345007196        4.7234781618
 H        -6.3657447219       -2.6468256414        7.6193383568
 H        -8.1905508608       -2.4091896101        7.5742349052
 H        -7.3802438977       -2.7626077172        9.1208502655
 H        -9.0913791646       -0.5632742700        9.6957773200
 H        -9.0427326678        0.2270449215        8.1120961897
 H        -8.2354329922        0.9102489253        9.4551869159
 Na      -10.4462227666        4.7128151772       -2.3339863587
