117

 C       -12.5898466773       -5.1217315975        1.2848865236
 C       -12.5393824219       -3.6305356855        0.7777900400
 O       -11.4556338032       -3.1049152956        0.4820825375
 C       -13.8834518358       -2.8179320231        0.6276782850
 C       -13.9567239826       -1.8630950050        1.9218251649
 O       -13.6210990964       -0.7122774387        1.6766675451
 C       -14.5939881065       -2.1675660404        3.3214546774
 C       -14.3236179031       -1.0092374947        4.3958164327
 C       -12.7145872803       -0.7999602549        4.7056389348
 O       -11.9675838878       -0.8213261173        3.7620167124
 C       -12.0560979045       -0.7247059130        6.1366972461
 C       -10.6277558740        0.2242388425        6.0403303696
 O       -10.8353487641        1.3379295496        6.4846748610
 C        -9.2368095090       -0.3278057578        5.7362573749
 C        -8.4023941534        0.5081054282        4.7347479606
 C        -8.4587477175       -0.1150965541        3.2831447980
 O        -9.4004897568       -0.8916986973        2.9755283787
 C        -7.8472398310        0.6013438967        2.1052100552
 C        -8.4048500856        0.5061341653        0.6545300443
 O        -9.5127891673        0.0055728072        0.3384018639
 C        -7.5138297432        0.9724740676       -0.5319611321
 C        -7.6330628626        2.5053862065       -0.9220254532
 C        -8.9882598650        2.6871392341       -1.7936495401
 O        -9.0461651508        2.4516355588       -2.9673181040
 C       -10.2671913572        3.2855904533       -1.1628044619
 C        -9.9464441824        4.7868003713       -1.8182689994
 O        -9.1152293004        5.4888072693       -1.2525783678
 C       -10.7055831997        5.2524676987       -3.1399274133
 C       -10.1379308682        6.6208661300       -3.6130294975
 C       -10.3572355752        7.5819514678       -2.5242080770
 O       -11.3416537299        7.5877399419       -1.8634547907
 C        -9.2147972620        8.8116091497       -2.3649988718
 C        -9.3179446355        9.7647237676       -3.5282602574
 O        -9.7241511726        9.5470618343       -4.6284859324
 C        -8.6938772479       11.1006756546       -3.2147682754
 C        -8.1968099957       11.7867492258       -4.5968936621
 C        -6.6102782031       11.7218818955       -4.5810141156
 O        -6.0388000404       10.8383407256       -3.9110958355
 C        -5.8269573529       12.4199036786       -5.7392576501
 C        -5.9092865056       11.7337506301       -7.2629825321
 O        -6.5744563067       12.3920613742       -8.1128438600
 C        -5.2617216824       10.4357450796       -7.8162027775
 C        -6.4947781159       13.7951346155       -5.9916879510
 C        -4.2811500814       12.6234604981       -5.4895811762
 C        -9.6929879409        9.4267916913       -0.9391051699
 C        -7.7086287655        8.4086057635       -2.4094870273
 C       -11.6101249518        2.8879747708       -1.8323440033
 C       -10.3773679716        3.4242144782        0.3055048975
 C        -8.0492974266        2.1208187745        2.3619825254
 C        -6.2936933254        0.2474561060        2.1082340282
 C       -12.9043290772        0.0464750088        7.1627470537
 C       -11.9118069650       -2.1663674765        6.6285690090
 C       -13.7280961038       -1.7969603954       -0.6008531189
 C       -15.0496445151       -3.8228064758        0.5646681014
 H       -13.3177964365       -5.2012811850        1.9704461077
 H       -11.6175972271       -5.4124829016        1.7697660532
 H       -12.7984461704       -5.7420539133        0.4495611845
 H       -14.0795705900       -3.1089297625        3.6403399944
 H       -15.6442269521       -2.3691987926        3.3885329449
 H       -15.2527386670       -1.0528567342        5.1380928854
 H       -14.7086034097       -0.0877304645        3.8085484859
 H        -9.3114891156       -1.2770516082        5.2625842109
 H        -8.7266714367       -0.3633874559        6.7017579657
 H        -7.3305344102        0.3491420555        5.0116871139
 H        -8.5405326288        1.5930880502        4.8698929136
 H        -7.8564670939        0.3255798163       -1.4031305845
 H        -6.4550983774        0.6025785375       -0.5053988472
 H        -6.7638025037        2.5532172308       -1.5815301789
 H        -7.5523677993        3.2330885697       -0.0804923530
 H       -11.6833754146        5.5971209053       -2.6899911834
 H       -10.8271906983        4.4658387813       -3.8409124518
 H       -10.7590847956        6.8588643642       -4.5172323282
 H        -9.1659037699        6.4080874990       -3.9736398924
 H        -7.8515879978       10.9024880596       -2.5594626598
 H        -9.3995408950       11.8357142633       -2.9182044529
 H        -8.6838208432       12.7624713379       -4.6318353552
 H        -8.5661321110       11.2136436364       -5.5342406784
 H        -6.0655412010       10.1870336317       -8.4155129149
 H        -5.0056219768        9.7152215434       -7.0332158008
 H        -4.3024315971       10.7004287858       -8.3388141017
 H        -6.3663813227       14.2547506477       -4.9844557808
 H        -7.4885388076       13.6921432862       -6.2288264825
 H        -5.7220344760       14.3679456029       -6.5547104012
 H        -4.1529617035       12.1441138072       -4.4221221384
 H        -4.2562043671       13.7439126052       -5.3996020851
 H        -3.6374555912       12.1953559562       -6.2166878770
 H        -9.2471800038       10.3353236099       -0.5890856735
 H        -9.4971754520        8.6709748640       -0.1445898459
 H       -10.7660023847        9.7229034695       -0.8807330559
 H        -7.6387432839        7.6620543345       -1.6106825086
 H        -7.0162719427        9.1970279066       -2.1713926982
 H        -7.4266288087        7.9767424434       -3.2911219312
 H       -11.9368692038        2.0358858813       -1.2976002724
 H       -11.3717140983        2.6393991800       -2.8311265814
 H       -12.4294667199        3.5654822571       -1.6302321984
 H       -11.3261488515        4.0365201498        0.5069488688
 H        -9.4438883337        3.9816905749        0.6912850495
 H       -10.4557395779        2.4337587410        0.7621614587
 H        -7.3320478514        2.7059289481        1.7861810031
 H        -7.9615426563        2.5836482752        3.3135227715
 H        -9.1138480012        2.2963046949        2.2076943469
 H        -5.7313921232        1.0156644191        1.5647110006
 H        -6.1283084577       -0.7850143080        1.6491914126
 H        -6.0129856956        0.1891051548        3.2313537871
 H       -12.3649526509        0.1375011021        8.0649167861
 H       -13.8294038020       -0.4861479259        7.4111902089
 H       -13.1822710202        1.0440185490        6.7122825242
 H       -10.9874235935       -2.3690067873        7.1749138865
 H       -11.8468763608       -2.9661679080        5.7949870639
 H       -12.6923057633       -2.3743175874        7.2991011916
 H       -13.8014567054       -2.3030725457       -1.5761414071
 H       -12.9604401963       -1.0583456929       -0.7219513398
 H       -14.5955732450       -1.2221815595       -0.5400876390
 H       -14.8152617438       -4.6441129420       -0.0674036448
 H       -16.0159547593       -3.3912537497        0.1987037683
 H       -15.1507959181       -4.3353748591        1.5315589911
 Na      -11.1847747497       -1.0371760636        1.4072221415
