117

 C       -13.1260648475       -4.9688045682        1.3882263200
 C       -13.0668671972       -3.4866491574        1.0324350981
 O       -11.9694817004       -2.9410378524        0.9757092262
 C       -14.3435850519       -2.6468747070        0.8291750413
 C       -14.1828932487       -1.5090929195        1.8050237870
 O       -13.8398637532       -0.3842397644        1.4505676459
 C       -14.2149564700       -2.1953217509        3.2534241468
 C       -13.8176845493       -1.4057319115        4.3967308010
 C       -12.5033995433       -0.7213639933        4.6359585947
 O       -11.8159537260       -0.1086637660        3.8982566594
 C       -12.1206457587       -0.6513789780        6.2743459592
 C       -10.7714413801        0.0718371480        6.1671154142
 O       -10.6914752719        1.2633009004        6.2707253373
 C        -9.4995537042       -0.7203353835        5.6403169286
 C        -8.5222052694        0.2360654238        4.9191325674
 C        -8.6874628918        0.0505974807        3.4302509412
 O        -9.2388370116       -0.9705635765        2.9731217266
 C        -7.8005035004        0.9352110924        2.5553382208
 C        -8.3781009991        0.8754477263        1.1014358675
 O        -9.5930582291        0.6661434854        0.9533664214
 C        -7.5428341477        0.9033119557       -0.1277015731
 C        -7.6502540574        1.9761082380       -1.1494438523
 C        -8.9000279443        2.2020877064       -1.8762106054
 O        -9.0635324480        1.6221760952       -2.9631787129
 C       -10.1076408174        3.3181126924       -1.4434365265
 C        -9.7114290950        4.6848211585       -2.0559983066
 O        -8.6294239648        5.2178573035       -1.7012118642
 C       -10.2980903083        5.0788937828       -3.5044832310
 C        -9.8789343685        6.5432324054       -3.8066130915
 C       -10.1265132954        7.5827962296       -2.6763395834
 O       -11.0387734331        7.4932324466       -1.9262361654
 C        -9.0199332243        8.8729501364       -2.6131706585
 C        -9.2342386303        9.8132608251       -3.8139819564
 O        -9.8704637452        9.4160011290       -4.8056337695
 C        -8.6839006717       11.2643302139       -3.7189595485
 C        -8.0292780648       11.8278850725       -5.0010953236
 C        -6.4862520342       11.6959282515       -4.9436280922
 O        -6.0238817676       10.7327669126       -4.2931566390
 C        -5.6409874647       12.4878719985       -5.8889461857
 C        -6.0005001554       11.5887460251       -7.1423143110
 O        -6.8356664087       11.9443470530       -7.9840023413
 C        -5.5083805348       10.1059671772       -7.2497771173
 C        -5.9737199018       13.9909612808       -6.1272193349
 C        -4.0728209436       12.5634253654       -5.7639650679
 C        -9.4728613409        9.6114862840       -1.3512002043
 C        -7.6074381187        8.1959456294       -2.6139596882
 C       -11.4582067688        2.6774028443       -2.0364684987
 C       -10.1496425931        3.4739919499        0.1219568520
 C        -8.1112338614        2.3609787979        3.0583757787
 C        -6.2778906312        0.4452929965        2.6925112959
 C       -13.1439425256        0.3048278078        6.9656475272
 C       -12.0015333064       -2.0989377701        6.8167027005
 C       -14.2388996004       -2.1384069664       -0.6005014020
 C       -15.7690363314       -3.3769759007        0.9272752401
 H       -12.9578342241       -4.9675470960        2.4540723835
 H       -12.2500999417       -5.4655168830        1.0411103966
 H       -13.9223625096       -5.4600268854        1.0168877021
 H       -13.5913366239       -3.1761309399        3.3113549268
 H       -15.2408557623       -2.5326345637        3.2292676660
 H       -14.1119259004       -2.0621268789        5.3289937881
 H       -14.5446814500       -0.4704297159        4.4294450213
 H        -9.7183573189       -1.5205586007        4.8541151100
 H        -8.9528181709       -1.1573610565        6.5411488480
 H        -7.4613905504       -0.0744037848        5.1840139844
 H        -8.6206649420        1.3014105492        5.1893025352
 H        -7.5805439581       -0.2051706722       -0.5443568376
 H        -6.4963453740        1.0356718370        0.2855145516
 H        -7.0077053304        1.5726382912       -1.9919301242
 H        -7.4054018444        2.8309467533       -0.6177586117
 H       -11.4369767877        5.0971829692       -3.5137392322
 H        -9.8363886353        4.2504385965       -4.0522205697
 H       -10.5436118866        6.7446862224       -4.7001393277
 H        -8.9086245491        6.4314875312       -4.1735589882
 H        -7.9322305024       11.2640751533       -2.9109012538
 H        -9.6591774021       11.7576951280       -3.5139701223
 H        -8.1670692730       12.9156157275       -4.9542241178
 H        -8.4593298917       11.5114891622       -6.0341448355
 H        -5.5677994674        9.8653480641       -6.1772028295
 H        -4.4741521220       10.1050667006       -7.6540884276
 H        -6.1731963217        9.4703993994       -7.8932111764
 H        -5.7790661148       14.6176282299       -5.1356695458
 H        -6.9880401660       14.1031883332       -6.5473297725
 H        -5.2882468630       14.1621558514       -6.9645897083
 H        -3.5874738065       11.4790821454       -5.9345220887
 H        -3.7444011253       13.2021584363       -4.9060408166
 H        -3.7933332835       13.1894118316       -6.6027341826
 H        -8.8474410243       10.3209804015       -0.9163695494
 H        -9.8035267769        8.9503780629       -0.5213920855
 H       -10.3609057460       10.1751492153       -1.6791534551
 H        -7.6894914312        7.3276556517       -1.9039085712
 H        -6.8067408467        8.8303231696       -2.1983536031
 H        -7.2855139570        7.9093020669       -3.5920088274
 H       -11.5835033446        1.7056833376       -1.6973282152
 H       -11.3870623712        2.6440455110       -3.1313246033
 H       -12.2570533875        3.3007892689       -1.6756027910
 H       -11.1123133728        3.9498445493        0.2820777611
 H        -9.3312389735        4.1675014643        0.3447866928
 H       -10.2147610669        2.5603335647        0.6944854210
 H        -7.5297075666        3.0584040019        2.4746595347
 H        -7.6334471156        2.5110953013        3.9723003058
 H        -9.1258421483        2.6682388374        3.2258660603
 H        -5.6470937023        1.0680257995        2.0849909606
 H        -6.1382956387       -0.5128718188        2.2879404807
 H        -5.9627322514        0.4369660498        3.7436657030
 H       -12.7819244508        0.5614459671        7.9473270871
 H       -14.0990085163       -0.1776000654        6.9631629692
 H       -13.2973483918        1.1745495581        6.3044939966
 H       -12.8924761300       -2.5799826413        6.6651945962
 H       -11.7729918436       -2.1844464874        7.9348282588
 H       -11.2344041959       -2.6001543354        6.3039755977
 H       -14.2838383418       -2.9295794563       -1.3390502784
 H       -13.2512797614       -1.7210755077       -0.7585355087
 H       -14.8886269924       -1.4135476164       -0.9016154776
 H       -16.5056741399       -3.0831948744        0.2017391414
 H       -16.3148192293       -3.2315698459        1.9133238941
 H       -15.5254557748       -4.4438450103        0.8282652607
 Na      -11.3511028586       -0.7287913622        1.7876790728
