117

 C       -13.5054693571       -5.1401854682        0.7045520124
 C       -13.2549124555       -3.5869647348        1.0895832332
 O       -12.1839234528       -3.0678288920        1.3757497049
 C       -14.5213717467       -2.6218037548        0.8682003378
 C       -14.1693646602       -1.5299024159        2.0016112720
 O       -13.8734199765       -0.3980784458        1.7026655340
 C       -14.3158707011       -1.8995897445        3.4527742252
 C       -14.2616517219       -0.7697997430        4.4236744317
 C       -12.8558863461       -0.5388800499        4.9387230475
 O       -11.9788700084       -0.4065908129        4.1033412891
 C       -12.3216813571       -0.4473723646        6.5022338585
 C       -10.7225483572        0.0829748085        6.3358627660
 O       -10.5546720509        1.2568352478        6.4288969427
 C        -9.3795487145       -0.8081291489        5.9949538852
 C        -8.2229546581       -0.2233310948        5.1534800809
 C        -8.5040130292       -0.0763084022        3.6417418992
 O        -9.2128869892       -0.9978283828        3.0503452785
 C        -7.8727449927        0.8947298910        2.6757755501
 C        -8.2758049685        0.8997708090        1.1211745539
 O        -9.4979760568        0.9594257640        0.9485379528
 C        -7.4282679189        0.9601158181       -0.1321951250
 C        -7.5288285413        2.1000413169       -1.1165940748
 C        -9.0081808813        2.0428423935       -1.7837271067
 O        -9.2820055734        0.9075595506       -2.2287811646
 C       -10.0677052299        3.2490207838       -1.7771118847
 C        -9.4681488686        4.6594192036       -2.4620922385
 O        -8.3187692978        5.0335747428       -2.1872967561
 C       -10.2538933668        5.1972593788       -3.7135271291
 C        -9.6371496623        6.6338327552       -4.0311298946
 C        -9.8725787618        7.5815262267       -2.8921178535
 O       -10.7533148932        7.3333472957       -2.1389213223
 C        -8.9452933003        8.8713144535       -2.7136789659
 C        -9.0749244142        9.7986058593       -4.0337893094
 O        -9.3091424080        9.4525399082       -5.1419005027
 C        -8.7901136154       11.3106596763       -3.7995736622
 C        -8.0185775747       11.9628793404       -4.8884832760
 C        -6.5107820732       11.5823962383       -4.8957671174
 O        -5.9866253374       10.9234467015       -4.0007111863
 C        -5.6734828316       12.1296657275       -6.1319309767
 C        -5.9756265358       11.2897004891       -7.4390602852
 O        -6.8179003742       11.7414250762       -8.2908024186
 C        -5.4923290801        9.8976779068       -7.6382664153
 C        -6.0213243226       13.7512211211       -6.3967793097
 C        -4.2617835925       12.2604784378       -5.6948637656
 C        -9.2879372367        9.5365473653       -1.2390584885
 C        -7.5123610274        8.5958548036       -2.6247284185
 C       -11.5334702816        2.7754970786       -2.4290568767
 C       -10.0996713880        3.7044933726       -0.2748540314
 C        -8.2284146441        2.3582251212        3.2261914239
 C        -6.3019801524        0.5996408590        2.9376799289
 C       -13.1983773987        0.5509671653        7.2799654638
 C       -12.4113178437       -1.8573748129        7.0649917582
 C       -14.3881380036       -1.8442280900       -0.5058212045
 C       -15.8820352419       -3.4180372460        0.9836437355
 H       -13.8003591525       -5.6541898552        1.6602498623
 H       -12.5191909931       -5.6966332111        0.4112449931
 H       -14.1674782017       -5.2444266416       -0.1625362120
 H       -13.4345909686       -2.5370238514        3.6035483115
 H       -15.2398306120       -2.5176075970        3.4838927120
 H       -14.8942785882       -0.9980677689        5.2216083624
 H       -14.5185810905        0.0482853599        3.9009472765
 H        -9.7603355560       -1.6965214105        5.4546618722
 H        -8.9046778854       -1.2660362620        6.8927551709
 H        -7.4809845368       -0.9856292753        5.1135191626
 H        -7.8449329125        0.6924369369        5.6020377589
 H        -7.8988577967        0.1593005744       -0.7745000607
 H        -6.3989644634        0.7254210294        0.0689818947
 H        -6.7828864192        1.8519915753       -1.9250837856
 H        -7.3941743604        3.0449740041       -0.5679478667
 H       -11.3392052667        5.3184797084       -3.3388635321
 H       -10.1846205783        4.4239373340       -4.4774005314
 H       -10.0597561486        6.9601591240       -4.9927078777
 H        -8.6299141320        6.3095371754       -4.2537356514
 H        -8.2823463672       11.4346405855       -2.7920460445
 H        -9.8393712821       11.6284252146       -3.7084175730
 H        -8.0695056062       13.0115478512       -4.7003642916
 H        -8.4060842612       11.8352262421       -5.8667595234
 H        -4.4795035835        9.7791178388       -7.4285871910
 H        -5.7506791089        9.7228828964       -8.6839867603
 H        -6.1741549142        9.2890903409       -7.0352877607
 H        -5.9532561955       14.0568231472       -5.3221822576
 H        -6.9407453173       13.9017365722       -6.7844698582
 H        -5.4736042890       14.1739554766       -7.2076593697
 H        -3.6520304066       11.2632442815       -5.8286136782
 H        -4.4169731258       12.3489054578       -4.6285512927
 H        -3.6539862535       13.0220314507       -6.0071310501
 H        -8.8543984138       10.4877533607       -1.0090714677
 H        -8.8876040579        8.9185068874       -0.4305960218
 H       -10.3823341869        9.5469055958       -1.0807509581
 H        -7.3593472571        8.0423478213       -1.6333101111
 H        -6.9517933486        9.5689509911       -2.7399827677
 H        -7.2135356334        7.9531408658       -3.4167533207
 H       -11.9329268925        1.9195897719       -1.8356890823
 H       -11.3037820047        2.2666233703       -3.3729184126
 H       -12.2091685382        3.6695038411       -2.5986787234
 H       -10.2309943849        4.7721458235       -0.0424351777
 H        -9.1611197773        3.3892304304        0.1324559071
 H       -10.8354564925        3.0895587309        0.1415465061
 H        -7.8223783980        3.1737151053        2.5503707296
 H        -7.8061463555        2.5687316367        4.2189326533
 H        -9.3471284816        2.5642856452        3.2684450752
 H        -5.6433661919        1.4204033617        2.7123400817
 H        -6.0729754761       -0.1221131689        2.1857496902
 H        -6.0467491160        0.1994028044        3.9633394218
 H       -12.8460481600        0.7237576830        8.2563369322
 H       -14.2483395987        0.2365691710        7.1210160472
 H       -13.0428327839        1.5232631936        6.7001078609
 H       -12.5556987566       -2.5468006331        6.2589146621
 H       -13.3773322666       -1.9914146197        7.7709306765
 H       -11.5535177453       -2.0613684025        7.6831725715
 H       -14.6192506340       -2.6036458674       -1.3307735332
 H       -13.4518685571       -1.3300516323       -0.8413976982
 H       -15.1683797453       -1.1520723183       -0.7315376062
 H       -16.4945929390       -2.8634241499        1.6285304615
 H       -15.6628100235       -4.3890723628        1.5070912399
 H       -16.3514602597       -3.7693325010        0.0749380246
 Na      -11.2776587418       -0.3940694990        1.7091401528
