117

 C       -13.4787363152       -4.8584406711        0.3607396005
 C       -13.2537988937       -3.5937855006        1.0650929090
 O       -12.1554874051       -3.1977883917        1.3489740945
 C       -14.5575625134       -2.6073028966        1.0891977470
 C       -14.3859597917       -1.4253734852        2.0668247877
 O       -13.7792646079       -0.3933338869        1.7033938544
 C       -14.6059521772       -1.8241086581        3.5803108830
 C       -14.3007877139       -0.7139234680        4.6115022710
 C       -12.7207660959       -0.4251752625        4.8824864800
 O       -11.8164943052       -0.5314231267        4.1554341860
 C       -12.2825745995       -0.2677267757        6.3569775171
 C       -10.7502886987        0.2132708183        6.2464968989
 O       -10.5517883273        1.3615806964        6.5797952879
 C        -9.6145906239       -0.8119288552        5.8855382753
 C        -8.2956925893       -0.3877151472        5.0971774317
 C        -8.6032119462       -0.2539381334        3.5625664506
 O        -9.3978127549       -0.9724165590        3.0499147738
 C        -7.8297628580        1.0284718639        2.7470257050
 C        -8.3491324389        0.9565226159        1.2721809785
 O        -9.5387335017        0.8755316731        1.0397350245
 C        -7.2737741887        0.8860040243        0.0432759785
 C        -7.6246568506        2.1236284417       -1.0303135520
 C        -9.0857984943        2.0851161999       -1.6688494688
 O        -9.5145387758        0.9505709646       -1.9089793189
 C        -9.9750578330        3.2883238783       -1.8536034360
 C        -9.3094019951        4.4312223778       -2.7201450188
 O        -8.2022061010        4.8353022156       -2.4770414869
 C       -10.0096599714        5.1682997433       -3.8708422748
 C        -9.4447597617        6.6017353577       -4.0679111077
 C        -9.7952813597        7.6266879461       -2.9245242354
 O       -10.7003048144        7.4316521346       -2.0792393519
 C        -8.8765455143        8.8281557604       -2.6539655027
 C        -9.0713675799        9.8389173897       -3.9066298394
 O        -9.1539593048        9.2000274463       -5.0410526801
 C        -9.0264025566       11.4672528759       -3.8311890891
 C        -8.0337989676       12.1361015602       -4.8336506007
 C        -6.6339748543       11.6128459993       -4.9187915577
 O        -6.1677273952       10.9913974081       -3.9543181795
 C        -5.5998806551       12.1045538840       -6.1005491145
 C        -6.0363225823       11.2626397614       -7.5259936900
 O        -6.7460270686       11.7757077706       -8.3612811280
 C        -5.4023133145        9.7346598143       -7.7438381213
 C        -6.0858644316       13.5213881058       -6.4459070542
 C        -3.9919235144       12.1513100303       -5.9668902793
 C        -9.3742513129        9.4948405680       -1.4154343118
 C        -7.3431499689        8.4109571848       -2.6726717714
 C       -11.2386874938        2.8625580968       -2.4763011166
 C       -10.4115752447        3.6918690836       -0.3167775846
 C        -8.2995231967        2.3115254190        3.3415453081
 C        -6.2922319790        0.6789425684        2.8696911296
 C       -13.0734084055        0.6777597584        7.3455606068
 C       -12.5138404317       -1.8033932088        6.9821516818
 C       -14.3030870074       -1.8552035031       -0.2692579562
 C       -15.8746018936       -3.3174861478        1.1677599933
 H       -14.1066587569       -5.4449169238        1.0782056821
 H       -12.6110149890       -5.3274489971        0.4618901655
 H       -13.7363432002       -4.8061818043       -0.6523756089
 H       -13.8907169110       -2.7552058681        3.5473648443
 H       -15.6371773344       -2.1070633734        3.7127426465
 H       -14.8096418438       -1.0661946476        5.5180665118
 H       -14.7829393414        0.2155424576        4.1061398019
 H       -10.1961205181       -1.7525723599        5.4752624632
 H        -9.2116755206       -1.2508002645        6.8969287195
 H        -7.4131378507       -1.0449608690        5.2271713435
 H        -8.1644787128        0.6010261672        5.4689444596
 H        -7.3472157785       -0.0883834132       -0.6511093761
 H        -6.1954144535        1.0850187852        0.4147421995
 H        -6.9187588123        1.9005357604       -1.9582908992
 H        -7.4498959480        3.0462071305       -0.5392229354
 H       -11.1157324705        5.3433069561       -3.6472969121
 H        -9.9594648738        4.6680610033       -4.8916896944
 H       -10.0850854262        6.8715577851       -4.9909559031
 H        -8.4664283852        6.4346687077       -4.3839361199
 H        -8.8609238542       11.6723431464       -2.7471617697
 H       -10.0910977137       11.8187231144       -4.1144681613
 H        -7.8704196443       13.1347496688       -4.4720446314
 H        -8.4953498101       12.2827508708       -5.8684990624
 H        -4.2740750638        9.8517993913       -8.0149216909
 H        -5.8998616381        9.3795547901       -8.6239336769
 H        -5.5991398271        9.0937887100       -6.8861638074
 H        -6.2077825939       14.0133538461       -5.4506092026
 H        -7.0131323023       13.4968914122       -7.1247654079
 H        -5.5260403409       13.9380681722       -7.2157523269
 H        -3.5710365966       11.1628549779       -5.6886724253
 H        -3.7931528287       12.8239669642       -5.0719132116
 H        -3.3063016545       12.5030989953       -6.8809263764
 H        -8.7865710044       10.3252293570       -1.2160261248
 H        -9.3017417605        8.9383919018       -0.4677360175
 H       -10.4217684066        9.7374413163       -1.5195341524
 H        -7.1870957696        7.6154147021       -1.8918522113
 H        -6.6664164538        9.3081088420       -2.6011886217
 H        -7.1327322798        7.9079215843       -3.7064010080
 H       -11.5414926961        2.0176100739       -1.9074141650
 H       -11.1618461998        2.4112472518       -3.5544646686
 H       -11.8995257885        3.7468989568       -2.4494271828
 H       -10.9225465820        4.5789863992       -0.3169434503
 H        -9.5482660925        3.8409801067        0.2673781205
 H       -10.9900256312        2.8272357506        0.0232056760
 H        -8.1406174290        3.1952710533        2.6677510029
 H        -7.9108523504        2.5857376565        4.3120906855
 H        -9.3876311443        2.2851967485        3.3876696040
 H        -5.4940438826        1.2782630987        2.4920019802
 H        -6.3017573931       -0.1972863704        2.3384803940
 H        -5.9601197889        0.4494682470        3.8432767554
 H       -12.7469132592        0.4030504256        8.3829357627
 H       -14.0653662761        0.4429100004        7.0765850441
 H       -12.8475933595        1.7468817494        7.2454161269
 H       -12.1626095524       -2.5565274194        6.3093593726
 H       -13.5346978776       -1.9352130550        7.0439670445
 H       -12.1320486225       -1.8542427227        8.0009441413
 H       -14.3374116472       -2.4390962556       -1.2028616637
 H       -13.3636607721       -1.2532966635       -0.3623471294
 H       -15.0895029397       -1.1557713004       -0.5279635043
 H       -16.4321496195       -2.7181817593        1.8653014307
 H       -15.8405048697       -4.3903505281        1.4702583957
 H       -16.3546094105       -3.4263191736        0.2046246547
 Na      -11.3015369019       -0.4659968521        1.7501343546
