117

 C       -13.4628500678       -4.7538487495        0.0812264996
 C       -13.2018934162       -3.5158960006        0.9500479098
 O       -12.1562756393       -3.1313358330        1.4337438351
 C       -14.5072433434       -2.4861567534        1.1098232708
 C       -14.1987347491       -1.4843966446        2.2390742499
 O       -13.7661413111       -0.3622385185        1.9851834665
 C       -14.7958102161       -1.6218114799        3.7532296640
 C       -14.1989833396       -0.5092665993        4.7687597820
 C       -12.6586724433       -0.4763871609        4.9220742698
 O       -11.9056973373       -0.5922181774        3.9070956965
 C       -12.2546526424       -0.2194751566        6.3457868122
 C       -10.7640574871        0.2505181401        6.3681827957
 O       -10.3857862279        1.3861962948        6.5968338633
 C        -9.8641115316       -0.7987109570        5.8364652009
 C        -8.6155307852       -0.3145908087        5.0916710489
 C        -8.8134447720       -0.2281106743        3.5393319179
 O        -9.4846248144       -1.0073374231        2.9978044606
 C        -7.8767530932        0.7756112612        2.8077597855
 C        -8.3734191630        0.9175067968        1.3631168140
 O        -9.5416331543        0.8305219682        1.0587975300
 C        -7.3838540779        1.0968431298        0.2178482867
 C        -7.7448462879        2.1384884376       -0.8612590575
 C        -9.1169453153        1.8980267249       -1.4509398993
 O        -9.7044909735        0.9287958835       -1.6679706610
 C        -9.9694684343        3.3131446419       -1.8371525604
 C        -9.0732105034        4.4262604583       -2.7560398970
 O        -7.8803609061        4.5208785720       -2.6301277594
 C        -9.9380288727        5.1607844663       -3.9017334193
 C        -9.4126728880        6.6092582845       -4.0900103538
 C        -9.6758864416        7.4906929912       -2.8740386223
 O       -10.6855265876        7.3593560915       -2.1769021784
 C        -8.8181411979        8.9022988023       -2.6973157479
 C        -8.8858359176        9.7999040049       -3.9587752239
 O        -9.0240629682        9.2175154354       -5.0355948549
 C        -9.0795481453       11.3485474467       -3.9024913352
 C        -8.1416881816       12.2410012517       -4.8996168077
 C        -6.5431485191       11.6519285467       -4.8793015070
 O        -6.1588514703       10.9736463707       -3.9883597075
 C        -5.7057779637       12.0351262541       -6.2409858615
 C        -5.9813279674       11.2085806813       -7.4997498595
 O        -6.6076865370       11.6748452455       -8.3376343141
 C        -5.3709702598        9.8436287926       -7.7191493563
 C        -6.1332111210       13.4730629640       -6.5485397196
 C        -4.1920344875       11.8472635242       -6.1171297764
 C        -9.3269444499        9.6154088196       -1.4840301147
 C        -7.2684896112        8.3139546538       -2.6505160905
 C       -11.1966101426        2.8598633669       -2.6877287947
 C       -10.5289704566        3.8558047528       -0.5086023373
 C        -8.2959258739        2.2233753095        3.4546568194
 C        -6.3343034176        0.7963316196        2.8580661728
 C       -12.9707165139        0.7748197354        7.2851083941
 C       -12.4177669950       -1.6759794651        6.9301368746
 C       -14.3765383852       -1.8970632935       -0.3238762297
 C       -15.8600224156       -3.1558146043        1.3262450209
 H       -14.2580083662       -5.3291032482        0.2599666497
 H       -12.5854472217       -5.4136957369        0.2228317571
 H       -13.3445077145       -4.2979329197       -0.8612004722
 H       -14.7330185926       -2.6914530700        4.0565252027
 H       -15.8385679245       -1.2794948009        3.6450025474
 H       -14.6594652354       -0.9161863779        5.7475792748
 H       -14.5513571491        0.5890886545        4.4295027292
 H       -10.4006652514       -1.6141128837        5.3019909690
 H        -9.4737619902       -1.3678950947        6.7395780974
 H        -7.9331887138       -1.2226543141        5.0199182667
 H        -8.1585126392        0.5401063924        5.6377654679
 H        -7.2147212422        0.1525613752       -0.3502927046
 H        -6.3885319157        1.5056579624        0.6010719369
 H        -7.0078095219        2.0310053505       -1.6334691141
 H        -7.7067043292        3.1736845870       -0.4242745693
 H       -10.9944059662        5.1356809901       -3.8220589844
 H        -9.6193584949        4.6988778561       -4.9215986643
 H        -9.8310413934        7.0918095744       -4.9870733305
 H        -8.3405896753        6.3040248374       -4.2936942724
 H        -9.0748847779       11.6280000907       -2.8548799395
 H       -10.1128562724       11.5793598286       -4.2603579581
 H        -8.3176732920       13.3336233986       -4.6099293126
 H        -8.5596200249       12.1745921909       -5.9478206675
 H        -4.4699554081       10.0624174247       -8.3796478811
 H        -6.0828738653        9.2222985589       -8.3189103284
 H        -5.0684114683        9.4023586894       -6.7522858094
 H        -6.0379688190       13.9357317276       -5.6241890730
 H        -7.0719696904       13.6200554205       -7.1848347623
 H        -5.4507184397       13.8383248387       -7.3629211572
 H        -3.8194591024       11.1073872089       -5.4272331800
 H        -3.6316596005       12.8506004426       -5.8720870622
 H        -3.7920323226       11.5501776083       -7.1685558186
 H        -8.5296247989       10.2360281030       -1.0282079748
 H        -9.5123254036        8.9017422247       -0.7246551945
 H       -10.2625665891       10.0770660728       -1.6178972743
 H        -7.3226701288        7.3539825681       -2.1355801643
 H        -6.5805465188        9.0145605164       -2.1612072821
 H        -6.8472755031        8.0999745217       -3.6967449813
 H       -11.5542618432        1.9101106543       -2.2885810094
 H       -10.9534191946        2.6394834787       -3.7075316196
 H       -11.9148832491        3.6474656725       -2.6882270345
 H       -11.2973376159        4.5112954894       -0.8548325232
 H        -9.9067902586        4.5722442408       -0.0155832315
 H       -10.8468482265        3.0121840675        0.1174389181
 H        -8.0562710161        3.0759909156        2.8704810626
 H        -7.8650120171        2.3302720318        4.4481905226
 H        -9.3492667984        2.3190525438        3.5226959922
 H        -5.9448483448        1.6116720345        2.2788906976
 H        -5.7209656822       -0.0936940280        2.6129697845
 H        -5.9832676146        1.1539920781        3.7967852065
 H       -12.6851414943        0.4685045983        8.3137321005
 H       -14.0185873028        0.8013826066        7.0507607750
 H       -12.4708296137        1.6925140482        7.1900559177
 H       -11.6020796737       -2.2779402377        6.5635654034
 H       -13.2584930097       -2.0872652969        6.5138734065
 H       -12.5274652479       -1.6469036039        7.9782322663
 H       -14.5391197831       -2.5424064438       -1.1226125685
 H       -13.4620204957       -1.4088045553       -0.4721316836
 H       -15.1114369797       -1.1027102669       -0.5836779686
 H       -16.5256609825       -2.4312154056        1.8925754143
 H       -15.8200007767       -4.1427174009        1.7076499933
 H       -16.2327114876       -3.3661420613        0.3238394100
 Na      -11.3977830743       -0.6428238481        1.8012602505
