117

 C       -13.3101445139       -3.8929612547       -0.2354181722
 C       -13.2634024646       -2.8954783283        0.9500895896
 O       -12.2480359415       -2.7468491350        1.5825580164
 C       -14.7284563064       -2.0304559431        1.2270374411
 C       -14.3614556377       -0.7943687819        2.2730370073
 O       -13.5172127265       -0.0440961698        2.0230550601
 C       -14.8067648929       -0.9351460705        3.6986414647
 C       -14.1768030994       -0.1551593779        4.7664678801
 C       -12.7211900734       -0.4591895193        5.1849551051
 O       -11.8653543122       -0.9635857175        4.5078292245
 C       -12.3354431628       -0.0434326382        6.5764517254
 C       -10.7215966347        0.0148105866        6.3827438625
 O       -10.1857413873        1.1042572517        6.4139565364
 C        -9.8468142320       -1.2132235468        6.1700542675
 C        -8.5354811206       -0.7009352120        5.4383978660
 C        -8.8092845623       -0.5325235911        3.9749151015
 O        -9.2871748824       -1.5643547461        3.4658056788
 C        -8.2264892614        0.7292429228        3.0736170607
 C        -8.7025176923        0.9130640468        1.6242574288
 O        -9.9174315794        0.8592070597        1.3469271923
 C        -7.8107359344        1.3301369414        0.4023782932
 C        -8.4212289652        2.6555731131       -0.2946850742
 C        -9.3951334093        2.2493211809       -1.4555820154
 O        -9.7459865730        1.0473526149       -1.4956283353
 C       -10.1090357876        3.2469611358       -2.3376956644
 C        -9.0438500658        4.0300534909       -3.2916021302
 O        -7.9330200687        3.5253904600       -3.3871597683
 C        -9.3352288668        5.1577603474       -4.2797817712
 C        -8.4250022065        6.5039359933       -4.1014984485
 C        -9.1290179198        7.4635690837       -3.0729516749
 O       -10.2167573521        7.1521579045       -2.6543249354
 C        -8.4897953254        8.7491123693       -2.8112636823
 C        -8.5331347386        9.5141106172       -4.2317711786
 O        -8.2493048394        9.0165877443       -5.2157039917
 C        -8.9859407689       10.9709179785       -4.3595876077
 C        -8.0552207955       11.6454746275       -5.2658358612
 C        -6.4934131096       11.5110170074       -5.2123313207
 O        -6.0261191330       10.7098526813       -4.3844990841
 C        -5.6818825651       11.9996040467       -6.4635761952
 C        -6.1599757897       10.9874794900       -7.5914470679
 O        -6.8882915749       11.2901492157       -8.6380684353
 C        -5.8933749897        9.5227423190       -7.0732627398
 C        -5.9523495035       13.4771211687       -7.0791389770
 C        -4.1594670233       11.8300588567       -6.1868254786
 C        -9.0859788129        9.6211170400       -1.4595983865
 C        -7.0269010698        8.7353908727       -2.2651552130
 C       -11.2015360224        2.5412164429       -3.2278187559
 C       -10.8449712196        4.3652069455       -1.4837937030
 C        -8.7217140511        1.9008608171        3.8545727555
 C        -6.6652840129        0.9283546378        3.2239914467
 C       -12.9322514745        1.4181460724        6.9633930800
 C       -12.8813663547       -1.2772040385        7.4723410831
 C       -15.2925564188       -1.4107104555       -0.1588985267
 C       -15.7707101763       -3.0036417069        1.7905386041
 H       -13.5956392381       -3.3020732119       -1.2047442871
 H       -13.9160845515       -4.7208755249       -0.1549111230
 H       -12.2749785585       -4.0673700664       -0.3607868079
 H       -14.8149820176       -1.9883020762        3.8347431025
 H       -15.9050806297       -0.5930697650        3.6157771780
 H       -14.7840576806       -0.2961489534        5.7439471048
 H       -14.1420366971        0.9481615665        4.4110529202
 H       -10.3264717678       -2.0881517503        5.7383740323
 H        -9.5416794726       -1.6885443297        7.1169342786
 H        -7.7807146910       -1.5182081519        5.5100169665
 H        -8.1827952367        0.2658314976        5.9361022612
 H        -7.9427098031        0.4921830829       -0.3483829104
 H        -6.7915396154        1.5144902920        0.5839120251
 H        -7.6936403142        3.3041729687       -0.7092953549
 H        -8.8613233856        3.4174820555        0.4219136724
 H       -10.3777263184        5.5785128887       -4.2749562497
 H        -9.1226799256        4.7935371840       -5.2511108857
 H        -8.1611582792        7.0560851162       -4.9906454368
 H        -7.4093795450        6.3382108944       -3.6042618461
 H        -9.0835943307       11.5447561321       -3.4145775039
 H       -10.0064903926       10.9825594323       -4.6806787288
 H        -8.3995648439       12.7673208709       -5.2694508300
 H        -8.2907938762       11.3519894661       -6.3081241044
 H        -6.0430199256        8.7854829140       -7.8403929876
 H        -6.6706663185        9.2066775495       -6.3058734313
 H        -4.8890369645        9.5660471896       -6.5765733631
 H        -6.0868550594       14.1620937315       -6.1790192804
 H        -6.8954757086       13.4635930529       -7.4944116327
 H        -5.1136225338       13.9550477859       -7.5759982949
 H        -3.4040682115       11.7730495270       -7.0651624898
 H        -3.8920271260       10.8349539552       -5.8467532142
 H        -3.7986599880       12.4630219880       -5.4038281389
 H        -8.5785338387       10.5563797125       -1.3912537356
 H        -8.8902957031        9.0623029684       -0.5811294189
 H       -10.1642270500        9.7610645746       -1.4481331980
 H        -7.0999101540        8.5509536030       -1.1377851221
 H        -6.8012331075        9.8066095464       -2.4703506912
 H        -6.3161114450        8.0807079736       -2.7303801484
 H       -12.0074527187        2.3696338560       -2.5202389694
 H       -10.7655118864        1.6257847266       -3.5783279053
 H       -11.6288795150        3.0898669879       -4.0745957032
 H       -10.9304367063        5.3554918127       -1.9791914406
 H       -10.2178861699        4.4840328340       -0.6122552345
 H       -11.7904649259        4.0239858030       -1.1490743397
 H        -8.3525184035        2.8273939196        3.4294773544
 H        -8.3740981231        1.8204825886        4.8441433885
 H        -9.8075261509        2.0564128993        3.8936986963
 H        -6.2023621427        1.5183958817        2.4458120163
 H        -6.2381424765       -0.0174876278        3.0983745503
 H        -6.2326940208        1.1606694592        4.1970895493
 H       -12.4104010930        1.8368666634        7.7518359868
 H       -13.9424816402        1.1804197150        7.2854466085
 H       -12.8054337582        2.0348023794        6.0642594121
 H       -12.3170789637       -2.1081659541        7.2862922163
 H       -13.9721096894       -1.3976814435        7.2712236831
 H       -12.7360707920       -1.0258360668        8.4966238074
 H       -15.1982764681       -2.0870787770       -1.0449604921
 H       -14.7909530104       -0.4859042474       -0.4261026571
 H       -16.2857109366       -1.1126008637       -0.1146555903
 H       -16.7782872505       -2.6754248084        1.9934612073
 H       -15.1652379460       -3.3951810623        2.6439131303
 H       -15.8168954044       -3.7781959534        0.9920427686
 Na      -11.1077049925       -0.9223950590        2.1685353762
