117

 C       -13.3428885632       -3.6905022984       -0.3107403383
 C       -13.3587790961       -2.7681607048        0.7675300009
 O       -12.4090402748       -2.6052190580        1.5450781188
 C       -14.6488078138       -2.0084658505        1.1689889259
 C       -14.2241877374       -0.9511112728        2.2059525407
 O       -13.4734068060       -0.0102624467        1.9597848717
 C       -14.9390863615       -0.9511504482        3.7480491609
 C       -14.2015044637        0.0539571175        4.6773034372
 C       -12.7144246266       -0.3947434797        5.1196112423
 O       -12.0214451401       -1.1355377426        4.5070592942
 C       -12.2974763629        0.0337816089        6.5321321311
 C       -10.6732111267        0.1147235875        6.5234291877
 O       -10.1869930224        1.2319546566        6.4941192611
 C        -9.6670997232       -1.1441901971        6.3239645897
 C        -8.3149355269       -0.7389642099        5.5049577777
 C        -8.6618057457       -0.7528588265        3.9204644923
 O        -9.2686508576       -1.5788711161        3.3391261873
 C        -8.2714618272        0.6383524385        3.2430642879
 C        -8.8274018228        0.9713961665        1.6640049715
 O        -9.9759189556        0.9330262384        1.5413309549
 C        -7.8180153519        1.5151041555        0.5098564694
 C        -8.4838544282        2.6798068819       -0.3103691742
 C        -9.5429187184        2.2885269799       -1.5321896158
 O        -9.6898208083        1.1001783672       -1.6648514209
 C       -10.1648303795        3.3068300514       -2.4886067683
 C        -8.9615967477        3.8027364352       -3.3501706166
 O        -7.9539248855        3.1628053249       -3.3965919657
 C        -9.2442953975        5.1212812959       -4.2048347355
 C        -8.3005100895        6.3109240919       -4.0361849879
 C        -8.9897577536        7.4154939374       -3.1039480402
 O       -10.1523055892        7.1427102179       -2.7117149979
 C        -8.3670314933        8.8709999015       -2.7779806422
 C        -8.4482501100        9.5217871348       -4.1648218775
 O        -8.1780636359        8.8199963556       -5.1621604016
 C        -8.9822559319       10.9522401573       -4.4298935243
 C        -8.0428256244       11.8541838817       -5.2425739991
 C        -6.4991832825       11.4075241418       -5.3589636472
 O        -5.9454342740       10.9167792993       -4.3907591086
 C        -5.7045615022       11.8818976636       -6.5492095825
 C        -6.1883620850       10.9279974731       -7.6256312879
 O        -6.7864563933       11.1263236226       -8.6347206036
 C        -5.9193590649        9.3961906767       -7.2087510882
 C        -5.9812021655       13.3995168466       -6.9966802036
 C        -4.1875720647       11.8678893348       -6.3587420153
 C        -9.2260416910        9.6279420758       -1.6574141683
 C        -6.8288354820        8.7610319612       -2.2934855153
 C       -11.2147789046        2.5855645120       -3.4423166047
 C       -10.9027020530        4.4698794891       -1.6133055026
 C        -9.0111337232        1.8753191493        4.0821623403
 C        -6.7220836911        0.6606309048        3.4194469151
 C       -12.9357427729        1.3546990488        6.9312404880
 C       -12.7963967647       -1.0679157608        7.5390156408
 C       -15.3367511445       -1.3870200314       -0.0433992689
 C       -15.7841183732       -2.9015708087        1.8709812298
 H       -13.1788872207       -3.1389450656       -1.2838398692
 H       -14.2850128604       -4.2602758076       -0.3306771649
 H       -12.3593078550       -4.3026789116       -0.1655416933
 H       -14.8911004648       -2.0070489684        4.0462111728
 H       -15.9595179650       -0.7017326520        3.5095893148
 H       -14.7046546529        0.3575559462        5.5356770310
 H       -14.0028909504        0.8533051049        3.9958321047
 H       -10.1569579640       -1.9855882120        5.9584212004
 H        -9.3167247147       -1.5033773341        7.2094727997
 H        -7.5615125149       -1.5189822903        5.7602229063
 H        -7.9738969445        0.2567705772        5.8381327515
 H        -7.5966037912        0.8184657028       -0.1942815859
 H        -6.9357812503        1.8983791769        0.9079413254
 H        -7.6991152808        3.3764656366       -0.7214520205
 H        -8.9370140520        3.3981629179        0.2856825992
 H       -10.2536751516        5.5509954554       -4.1452833022
 H        -9.0677695839        4.8807040734       -5.1952826190
 H        -8.2766308373        6.9525647337       -4.9485085491
 H        -7.3097557014        6.0838841703       -3.8441343886
 H        -9.1821089993       11.4072172801       -3.4769723011
 H        -9.9517482009       10.8936440858       -4.8261643070
 H        -8.1144011721       12.8882257912       -4.9546271215
 H        -8.4472415359       11.8413303798       -6.2984525834
 H        -6.3614961474        8.5754892636       -7.9164407595
 H        -6.4701711284        9.2421239151       -6.3086519703
 H        -4.8903346566        9.3240126051       -6.8983355241
 H        -6.0951672398       14.0322439376       -6.1171117363
 H        -6.9963412485       13.4282322830       -7.4163084106
 H        -5.1963475399       13.8355273318       -7.4353872566
 H        -3.5440235818       12.4612288089       -6.7888648204
 H        -3.7192388457       10.9792802500       -6.6441513431
 H        -4.0595793451       11.8864955253       -5.2381318475
 H        -8.7760376167       10.4478289477       -1.1979513568
 H        -9.4645603430        8.8456626165       -0.9124008327
 H       -10.2157161449        9.8890829836       -2.0614065310
 H        -6.7310460110        8.1313637579       -1.4458779151
 H        -6.3841276691        9.7097551734       -2.2228895285
 H        -6.3824010934        8.2919181365       -3.1961549784
 H       -12.0293263570        2.3639935288       -2.8875480429
 H       -10.7606948705        1.7361316889       -3.9770097543
 H       -11.5649639563        3.2756594743       -4.1415391134
 H       -11.0553956159        5.4933454281       -1.9739425474
 H       -10.3094501361        4.4164290659       -0.6730966885
 H       -11.9008031143        4.0171451016       -1.3162328880
 H        -9.0019375943        2.8871344362        3.6105570330
 H        -8.7108408969        1.9917264794        5.0923330671
 H       -10.0468723724        1.5941963493        4.0995404164
 H        -6.1489251541        1.3012841671        2.6426575679
 H        -6.3273336037       -0.3841409983        3.1687884746
 H        -6.2467946618        0.7594233131        4.3961030964
 H       -12.6169652454        1.6554003288        7.9629491652
 H       -13.9542980206        1.1847708330        7.0061253851
 H       -12.6141829115        2.0263639078        6.1625889718
 H       -12.6636866119       -2.1151854599        7.1048295931
 H       -13.7956678812       -0.8539498618        7.7234269016
 H       -12.1889760675       -1.0671799190        8.5205298895
 H       -15.4488852883       -2.1438450263       -0.7776189138
 H       -14.8653669798       -0.5548157931       -0.5665603383
 H       -16.3053197992       -1.0228778910        0.2114312029
 H       -16.4418574493       -2.3960557669        2.5514303764
 H       -15.2176387856       -3.7023620870        2.3867618255
 H       -16.3956452735       -3.2107202152        1.0385030159
 Na      -11.2447429765       -0.8948045021        2.5152516419
