117

 C       -13.4132698496       -3.6323906942       -0.4869082316
 C       -13.4134674924       -2.7259952476        0.8191523439
 O       -12.3939603572       -2.5584662104        1.4304368320
 C       -14.8015277089       -1.9035176908        1.2859306596
 C       -14.3123318421       -0.8913945547        2.2413054185
 O       -13.4659603028       -0.0310977503        1.9009907865
 C       -14.7823975316       -0.8464977531        3.6841827895
 C       -14.0650862697        0.2119020884        4.4888232732
 C       -12.8635158999       -0.4246333849        5.1795404486
 O       -12.3171244918       -1.3328603556        4.4721321139
 C       -12.2299871269        0.0347933108        6.5229102188
 C       -10.5577433065        0.2500177196        6.4895647999
 O       -10.2002073348        1.3597029243        6.7029745873
 C        -9.6385236704       -0.9631538826        6.4066862830
 C        -8.4780149193       -0.8525417730        5.4601628174
 C        -8.7653508408       -0.6268226597        3.9686569633
 O        -9.1189726471       -1.5986318777        3.3125767527
 C        -8.2842241156        0.6357105505        3.2621809023
 C        -8.8561647760        1.0763662086        1.8504344720
 O       -10.0483094010        0.8442764338        1.6554201188
 C        -8.0986525863        1.6941518420        0.7631591396
 C        -8.6764001684        2.6281357931       -0.2957651607
 C        -9.5791134313        2.1174589589       -1.4439638362
 O        -9.6851520047        1.0006853472       -1.7946368997
 C       -10.1336572807        3.3260409953       -2.3779187131
 C        -8.9082704012        3.7695691079       -3.3523422363
 O        -7.9847161197        2.9818267080       -3.4303983767
 C        -9.1174075872        4.9820841709       -4.2506302836
 C        -8.2440574479        6.1521605259       -3.8343030631
 C        -8.9308965182        7.3436777087       -3.0553464723
 O       -10.0705982582        7.2805959564       -2.6767434832
 C        -8.3043219312        8.7464888201       -2.7951792299
 C        -8.3482613838        9.5082305909       -4.1649612265
 O        -8.0616691768        8.8003683646       -5.2141080326
 C        -8.8477380576       11.0060533574       -4.3940010195
 C        -7.9725802265       12.0137688384       -5.2896295985
 C        -6.4748255501       11.6131134940       -5.2688502948
 O        -5.9737823622       11.0741457660       -4.3419799919
 C        -5.7072513461       11.8139383454       -6.5927555034
 C        -6.1379209642       10.7058487412       -7.7260061423
 O        -6.7081497166       11.0595833813       -8.6562529670
 C        -5.9532043688        9.1877733442       -7.5006386704
 C        -6.1964307135       13.3263094700       -6.9911369518
 C        -4.1642406503       11.8399446292       -6.3939013468
 C        -9.2748546621        9.4654398416       -1.9529380085
 C        -6.7770671966        8.7208736535       -2.4043846619
 C       -11.0924685458        2.7156181166       -3.4910091238
 C       -10.9181223501        4.4412178289       -1.7599613299
 C        -9.0411672161        1.7997135721        4.0516266563
 C        -6.7670151639        0.5787678776        3.4776994607
 C       -12.7585071128        1.4007026932        6.9984050127
 C       -12.6021730744       -0.9891791380        7.6601003252
 C       -15.3687841874       -1.1917573658        0.0427928197
 C       -15.7635573505       -3.0499052109        1.8292205653
 H       -12.8590094464       -3.1538497521       -1.2624794899
 H       -14.5417873585       -3.8286090565       -0.7958368104
 H       -12.8410313469       -4.5729469501       -0.2753662030
 H       -14.5587993867       -1.8789829132        4.0646251302
 H       -15.8194636063       -0.7796296925        3.5482454933
 H       -14.6012088901        0.4135024640        5.3800986090
 H       -13.8675002368        1.0687669946        3.9589952284
 H       -10.2218711103       -1.8372975298        6.2466247304
 H        -9.1555186689       -1.1609291367        7.3554143254
 H        -8.0298264847       -1.8482770125        5.4648589494
 H        -7.7937377193       -0.1464250780        5.8423829854
 H        -7.8327503725        0.9365533772        0.0732449146
 H        -7.1822735763        2.1330245900        1.1739873548
 H        -7.8036427334        3.1627664167       -0.7485173792
 H        -9.1917551774        3.5272195490       -0.0536383959
 H       -10.1166188994        5.2944101040       -4.2319168250
 H        -8.8113238285        4.8483646650       -5.3324038268
 H        -7.7436671141        6.7580982676       -4.6166606950
 H        -7.4297363840        5.7787409804       -3.2737755403
 H        -9.0331366248       11.4374989210       -3.4424819050
 H        -9.8710750587       10.9047165483       -4.7966549076
 H        -8.0369575539       12.9858234747       -4.9177694101
 H        -8.3678825003       12.0564851474       -6.3051200254
 H        -6.4718988429        8.5897122161       -8.2314947733
 H        -6.4180357775        8.9861874716       -6.5480236779
 H        -4.9052893881        9.0079678159       -7.3363139223
 H        -6.1338708336       13.9731100355       -6.2041466802
 H        -7.2609057048       13.2879747383       -7.2027387460
 H        -5.5004628499       13.8243434022       -7.7177276200
 H        -3.4919844622       12.7016549121       -6.3630335389
 H        -3.5600288465       11.2690538968       -7.0806984745
 H        -3.9941524917       11.3654652067       -5.4593663136
 H        -8.8332994666       10.3759393065       -1.4738138079
 H        -9.7805999693        8.8153401115       -1.2230876695
 H       -10.0631014414        9.8001437842       -2.6131009220
 H        -6.5986202859        7.8922912005       -1.8221737342
 H        -6.3241303988        9.5944160962       -2.0349656475
 H        -6.4125763231        8.5352687471       -3.4141244893
 H       -12.0394206388        2.2965013071       -3.1437566519
 H       -10.5139638252        2.0819932713       -4.0866974384
 H       -11.4022336158        3.5184103820       -4.1080613281
 H       -11.1402092519        5.1891144882       -2.5467055713
 H       -10.4451425815        4.8889953007       -0.8549683149
 H       -11.9555642499        4.0390124993       -1.4901955479
 H        -9.1846757428        2.7723690880        3.5725048910
 H        -8.7731135885        2.0175459970        5.1239235931
 H       -10.0057368438        1.2997636827        4.1109550199
 H        -6.2077805902        1.4457626795        3.0861969643
 H        -6.2069716868       -0.3464617822        3.0397950835
 H        -6.4901116274        0.4581073655        4.5502508595
 H       -12.4736187114        1.5369531540        8.0732092104
 H       -13.8449016612        1.4104552625        7.0027499590
 H       -12.3043266086        2.0805838759        6.3212717384
 H       -12.7492537136       -2.0137536089        7.1529409240
 H       -13.6078705886       -0.6412470399        7.9752957117
 H       -11.9059844003       -1.1472358935        8.5129786121
 H       -15.6636202026       -1.9553063072       -0.6305467213
 H       -14.6194913521       -0.6515103034       -0.5131581246
 H       -16.2199612681       -0.4597862490        0.2087798262
 H       -16.4381497082       -2.6089527744        2.6131952055
 H       -15.2259339891       -3.8197718629        2.2862432555
 H       -16.4001487773       -3.2735261904        1.0000591507
 Na      -11.3441788517       -0.7834799270        2.6722403930
