117

 C       -13.7163330618       -3.3775933077       -0.6522297792
 C       -13.5243766965       -2.5853146930        0.5365097251
 O       -12.3406839140       -2.4165944110        0.9242263672
 C       -14.7534424534       -1.7671893115        1.2070222934
 C       -14.2540830343       -0.5757705563        2.2146353143
 O       -13.3754918386        0.2701615393        1.9414258874
 C       -14.8737806630       -0.4658807517        3.7531557665
 C       -13.8605933267        0.3431910413        4.6419675403
 C       -12.9289036588       -0.4862689811        5.5286614783
 O       -12.5552367689       -1.5750554116        5.1855627967
 C       -12.2067747037        0.1915889346        6.8247744366
 C       -10.5512198520        0.2973824437        6.5321200857
 O        -9.8960518484        1.2502877488        6.8445183884
 C        -9.8453087333       -0.9369382993        6.0792603428
 C        -8.5221966853       -0.8013901093        5.3916735930
 C        -8.8071101501       -0.4358470423        3.9302617434
 O        -9.4764288357       -1.2437471152        3.3234670327
 C        -8.3424478303        0.9903508978        3.2608270011
 C        -9.2145504694        1.1158808691        1.8440522067
 O       -10.3270108919        0.6417086842        1.7498603324
 C        -8.4905195943        1.8448014765        0.7130606036
 C        -9.4300777887        2.6573443906       -0.0201219839
 C        -9.6742640607        2.0092560816       -1.3790919166
 O        -9.6925309619        0.8217095237       -1.5045963803
 C        -9.9947750667        3.0188907532       -2.5526532646
 C        -8.6582637921        3.4303195599       -3.2872413208
 O        -7.6364303212        2.8131003458       -3.2540193141
 C        -8.6813974792        4.7116722042       -4.0483905096
 C        -7.9972103181        5.8103943487       -3.2558089519
 C        -8.8747822843        7.1776333740       -3.0859928020
 O       -10.0974961725        7.0246327138       -3.0383997984
 C        -8.2277224520        8.7044470574       -2.8134262220
 C        -8.2550650558        9.5278690641       -4.1195792028
 O        -7.9169689459        9.0129839907       -5.2533349962
 C        -8.5686828037       11.0618706567       -4.1475366726
 C        -8.0197569495       11.7131224868       -5.4956751009
 C        -6.4668125067       11.5656280962       -5.6234942673
 O        -5.9612012212       11.4982128397       -4.5610442084
 C        -5.6058134537       11.8209294015       -6.9155015747
 C        -6.1020971167       10.5489233269       -8.0200736403
 O        -6.7926520884       10.9166899134       -8.8595566055
 C        -5.5237591559        9.1708159816       -7.8204819081
 C        -6.0147926195       13.2288749283       -7.3426412975
 C        -4.1333642624       11.5174621286       -6.5205514642
 C        -9.1343819001        9.3181579424       -1.8280450741
 C        -6.6994802810        8.5693870960       -2.6396523546
 C       -10.9921838350        2.3235878819       -3.3658380991
 C       -10.7030235925        4.2368782257       -1.9115671482
 C        -8.8712941649        2.0540934200        4.4030825396
 C        -6.9198005131        0.7850541779        3.0887750147
 C       -12.8931588741        1.5892766677        7.1338019922
 C       -12.4501000593       -0.6428109900        8.0878719931
 C       -15.5856463267       -0.9519938598        0.0716286125
 C       -15.7117869816       -2.9083595325        1.8957452024
 H       -12.7703977759       -3.6252040700       -0.9283316127
 H       -14.4028129780       -2.7602387445       -1.3709680070
 H       -14.2862324035       -4.3528729129       -0.5018815164
 H       -15.0341045288       -1.5111381437        4.1753282699
 H       -15.8237624193        0.0923690125        3.8620577023
 H       -14.4519028321        0.9219092780        5.3406380803
 H       -13.1491030295        1.1064196144        4.1595373350
 H       -10.4553351597       -1.6129484421        5.4753190435
 H        -9.7292368449       -1.4144141362        7.0322132379
 H        -8.0756732920       -1.8467256462        5.2329616357
 H        -7.7342266881       -0.1799226761        5.8944497452
 H        -8.2851196946        0.9829864429        0.1202029820
 H        -7.5522153857        2.3331130696        0.9736873899
 H        -9.2053074282        3.7896611865       -0.0665065850
 H       -10.3471937489        2.7331342742        0.4547827743
 H        -9.6383058913        5.0136907996       -4.4697097788
 H        -7.9116793948        4.6823098636       -4.8208328493
 H        -7.1267530023        6.1903319135       -3.8711407321
 H        -7.5174150507        5.6414320295       -2.3405503744
 H        -8.1690408141       11.5047909955       -3.2216676410
 H        -9.6232175331       11.3191598151       -4.1365576255
 H        -8.4074641141       12.7418918211       -5.5550987686
 H        -8.5881193334       11.0507197161       -6.2739223316
 H        -6.1087668161        8.3910960014       -8.4002458775
 H        -5.5893069540        9.0189587447       -6.7455848793
 H        -4.4578649104        9.2270645627       -8.1443950783
 H        -5.6531308854       13.8911419201       -6.6082622467
 H        -7.1291052143       13.4924859157       -7.3854143826
 H        -5.4528802953       13.4936909376       -8.2484620897
 H        -3.8658931655       11.5493954378       -5.5177465320
 H        -3.4611048886       12.2948957375       -6.8726505079
 H        -3.5498741588       10.6825991297       -6.9693063968
 H        -8.8600465063       10.2944298643       -1.5289375605
 H        -8.9814077403        8.6432443129       -0.9808825429
 H       -10.1715698550        9.3313182386       -2.1154914970
 H        -6.4979084367        8.1946622615       -1.6444851182
 H        -6.1977110755        9.5090801980       -2.8772781737
 H        -6.4915649049        7.9108611468       -3.5637457562
 H       -11.9309674202        2.1704101613       -2.8275715514
 H       -10.5521659981        1.3732769162       -3.7591283584
 H       -11.2494541297        2.9991651252       -4.1943241277
 H       -11.2921765052        4.7006799368       -2.6231131685
 H       -10.0173612889        4.9005611555       -1.4713008588
 H       -11.4589256552        3.9476714903       -1.1701670774
 H        -8.4888344365        3.0674481463        4.3313108315
 H        -8.4125901186        1.7471852616        5.3272361287
 H        -9.9019486789        2.0374500491        4.6039891201
 H        -6.3656040256        1.6706286794        2.8588644065
 H        -6.5412432663        0.0956179659        2.2984613634
 H        -6.4686695694        0.5062580599        3.9844509047
 H       -12.2632296800        2.1030937517        7.9299264924
 H       -13.8046554310        1.3732643594        7.6157228556
 H       -13.0852002945        2.1199671233        6.2425056878
 H       -11.9155617586       -1.6125252086        8.0063870410
 H       -13.4257451976       -0.9700088422        8.2297582169
 H       -12.0685979229       -0.0820931848        8.9156910608
 H       -15.9955652295       -1.5600105113       -0.6856974349
 H       -15.0903725021       -0.1616806669       -0.4847873535
 H       -16.4612233322       -0.5490441514        0.6357476600
 H       -16.7833578601       -2.6285685462        1.9872843980
 H       -15.2103798892       -3.0823444250        2.8655735080
 H       -15.5450281040       -3.7782364838        1.2601756273
 Na      -11.6946957086       -1.1198451117        2.6867701956
