117

 C       -13.8449471119       -3.3330496301       -0.7844070620
 C       -13.5065008413       -2.3619994077        0.4369029562
 O       -12.4148092148       -2.2947875701        0.8685143553
 C       -14.7690180230       -1.6003481619        1.3424532114
 C       -14.2979081222       -0.4811261871        2.3037424562
 O       -13.3974684677        0.2398494422        1.8539790847
 C       -14.7253354439       -0.4797455070        3.7835884987
 C       -13.9369936494        0.4254474302        4.7620789771
 C       -12.9525346278       -0.4768281217        5.5843227495
 O       -12.6079728930       -1.6007374770        5.0915428067
 C       -12.2443282018        0.1479361454        6.8806275030
 C       -10.6153271941        0.1790947678        6.6339786294
 O       -10.0501111283        1.2034004985        6.8868903047
 C        -9.8704116246       -1.0972315928        6.0512291178
 C        -8.5370517102       -0.6204010517        5.3777703211
 C        -8.9152349264       -0.3448622059        3.9684317965
 O        -9.6714376221       -1.1009440700        3.3174321173
 C        -8.3506735880        0.9293451285        3.3093969275
 C        -9.1647294642        1.0721158153        1.9784575759
 O       -10.3795946703        0.7571606726        1.9079784391
 C        -8.5628539853        1.8494674628        0.8464249587
 C        -9.5892217880        2.6549815176        0.0617281202
 C        -9.8424152396        1.9948729183       -1.2875538097
 O        -9.6071095525        0.7821579442       -1.4322441168
 C       -10.0416835372        2.9619213606       -2.5527341731
 C        -8.5261618064        3.3356622733       -3.2284696883
 O        -7.5298822518        2.6103314629       -3.0618815507
 C        -8.6141557068        4.5827288299       -4.0918551539
 C        -8.0265672884        5.8530453259       -3.3067520974
 C        -8.8675367011        7.1720022418       -3.1906111601
 O       -10.0285311650        7.1358512907       -3.2015353423
 C        -8.1718108669        8.5814059261       -2.7687005933
 C        -8.2214972976        9.5312523895       -4.0692288706
 O        -8.0325463581        8.8535534860       -5.1042111988
 C        -8.5355283406       11.0775358221       -4.3023204924
 C        -8.0798200124       11.5847166610       -5.6819073147
 C        -6.5431040681       11.5878493146       -5.6588372027
 O        -5.8831393579       11.5749659881       -4.6300935052
 C        -5.5512891335       11.8168391834       -7.0639938379
 C        -6.0053880050       10.7134774577       -8.1158963244
 O        -6.9199682481       10.6877958025       -8.9062317646
 C        -5.4300644344        9.1812725157       -7.8950992202
 C        -5.8092005507       13.2191072459       -7.3799695237
 C        -4.0847135876       11.5670680150       -6.6774690819
 C        -9.1186274846        9.1702066147       -1.6397771078
 C        -6.5344398349        8.5995803720       -2.5674151973
 C       -10.9542874683        2.1581285611       -3.5314255190
 C       -10.6915178276        4.3335547821       -2.1645444039
 C        -8.7955260815        2.1242842986        4.1406511826
 C        -6.8869729558        0.7543814647        3.0280897893
 C       -12.7457738281        1.6331436716        7.1271156631
 C       -12.5020153828       -0.5267741710        8.3161771549
 C       -15.6382899529       -0.9409007235        0.1662428457
 C       -15.5984213717       -2.6331732825        2.0049100053
 H       -12.8537799218       -3.9457016125       -0.6548367368
 H       -14.1165131215       -2.8669642424       -1.7651916291
 H       -14.6678274892       -4.0740411090       -0.5753927427
 H       -14.7255477069       -1.5718746795        4.0940226159
 H       -15.7261565303       -0.1257596769        3.9611966247
 H       -14.5926514164        0.9741082263        5.3813198817
 H       -13.2972474205        1.1311748076        4.3563592996
 H       -10.4300356526       -1.6286489983        5.3687055293
 H        -9.6914278695       -1.6662319793        6.9031565902
 H        -7.7024944905       -1.3816206343        5.3226448650
 H        -8.1119359480        0.2751336704        5.8306704276
 H        -8.0454864955        1.1475954652        0.2975551637
 H        -7.8644496599        2.5186369668        1.2620246465
 H        -9.3686271132        3.7340828368       -0.0091615280
 H       -10.4828769751        2.7018936538        0.6821128490
 H        -9.6201277610        4.7366943162       -4.0905954859
 H        -8.1579079720        4.5709332202       -5.1329041991
 H        -6.9861571901        6.0832100107       -3.3939796641
 H        -8.0592052244        5.6844148797       -2.2726910741
 H        -8.0048544025       11.6923799247       -3.6093153589
 H        -9.5915556021       11.3078703066       -4.1420298597
 H        -8.4392590833       12.6131357297       -5.7010509789
 H        -8.4773980428       11.0144179507       -6.5249565038
 H        -6.1941875537        8.5644171465       -8.1793573126
 H        -5.1838562010        9.0197927530       -6.7950890259
 H        -4.5381481738        8.9855671636       -8.5550208583
 H        -5.5086784081       13.6792410270       -6.4818092694
 H        -6.8014832219       13.5813582476       -7.5627413135
 H        -5.0668182383       13.6459852864       -8.1531694073
 H        -3.8393942838       11.4103645261       -5.6076420587
 H        -3.4920069598       12.4396696112       -6.8632853405
 H        -3.4845186737       10.9807991062       -7.1958913953
 H        -8.6327239843       10.1051382162       -1.2664412698
 H        -9.0892920354        8.4990698360       -0.8129218620
 H       -10.0795384583        9.4141482345       -1.9642130922
 H        -6.3791280898        8.3651769788       -1.5468234674
 H        -6.1681578422        9.5812051553       -2.8411269124
 H        -6.1358166247        7.9293974901       -3.2959157020
 H       -11.9708377823        1.9555077982       -3.1465269852
 H       -10.4801707406        1.2693480759       -3.6684831313
 H       -11.0475309061        2.6549522655       -4.4640823711
 H       -11.0694648228        4.8335648369       -3.0731571875
 H       -10.1553826341        5.0313571115       -1.5354152724
 H       -11.6411743486        4.0932554662       -1.6780648657
 H        -8.6225564767        2.9873602970        3.5737853170
 H        -8.1498107301        2.2964117712        5.0139095746
 H        -9.7703802374        2.0673064681        4.5361979120
 H        -6.4098601438        1.6322286386        2.5796848230
 H        -6.6380113500       -0.0235604937        2.2808120137
 H        -6.1768384935        0.5937130325        3.9321791444
 H       -12.0037376261        1.8717086059        7.8446313394
 H       -13.7189948392        1.6802764713        7.6368018404
 H       -12.7862492208        2.2718938566        6.2767777927
 H       -12.0005949614       -1.4910082439        8.3879730827
 H       -13.6117326623       -0.9448028385        8.3781794877
 H       -12.2411544852        0.1454334964        9.1139919931
 H       -15.7826604557       -1.6630692745       -0.6134714167
 H       -15.0555240797       -0.1992089873       -0.2782127102
 H       -16.6447041314       -0.5345126137        0.3881527861
 H       -16.6135473373       -2.1702573055        2.2731467293
 H       -15.0492600295       -2.9130362319        2.8683655906
 H       -15.6395284853       -3.5006377859        1.3510833776
 Na      -11.6736575590       -1.3496415736        2.7435320012
