117

 C       -14.2143839610       -2.6600448023       -0.8996692098
 C       -13.8070442186       -2.0368728954        0.5525326687
 O       -12.7082100127       -2.1257419827        0.9465239675
 C       -15.0075451932       -1.3588609865        1.3605456032
 C       -14.2927485002       -0.5162466672        2.5404724782
 O       -13.4077069575        0.2600502696        2.2927077572
 C       -14.8742571699       -0.5218841662        3.9487139692
 C       -14.0636304919        0.4717835473        4.8130871822
 C       -12.7165356514       -0.1999143907        5.4249700939
 O       -12.3193942925       -1.3128189889        4.9091492153
 C       -12.3044821989        0.2313361089        6.8584841104
 C       -10.6348373619        0.4108986834        6.8801335895
 O       -10.1933230543        1.5200594157        7.1851051683
 C        -9.7993935662       -0.8088410433        6.6334637522
 C        -8.4794579730       -0.5649023407        5.7346224065
 C        -8.9347747134       -0.4058196221        4.2783748873
 O        -9.3943804787       -1.3567527094        3.6692862577
 C        -8.5453796759        0.8612103941        3.5800142035
 C        -9.5139460994        1.1936541971        2.3282680252
 O       -10.6186259335        0.7778041109        2.1599813693
 C        -8.8527913916        2.0195912202        1.0990105246
 C        -9.8522632741        2.7823209119        0.0617447761
 C        -9.9221967172        2.0932288196       -1.4977688348
 O        -9.8787252014        0.8931317834       -1.5396219361
 C       -10.0049843316        2.9595699964       -2.7726086250
 C        -8.6419044687        3.4205336155       -3.0360961369
 O        -7.7065821998        2.8270917966       -2.4773147891
 C        -8.3651680910        4.5149504264       -3.9867630714
 C        -7.6457090345        5.6382120519       -3.1167777932
 C        -8.5721998524        6.8807729513       -3.1756873874
 O        -9.6639749684        6.7989857305       -3.5486746214
 C        -8.0852020175        8.3872213289       -2.9824898078
 C        -8.0311435276        9.0125135371       -4.4338503382
 O        -7.9220659251        8.3096091211       -5.4245310876
 C        -8.1289879488       10.5543441227       -4.5279424101
 C        -7.6950198857       11.1417940440       -5.8194074472
 C        -6.1533116499       11.4561127229       -5.8491437946
 O        -5.5205833157       11.7180193661       -4.8144387035
 C        -5.5147029090       11.5923405444       -7.2106728825
 C        -6.0224071409       10.5255315890       -8.1815222306
 O        -7.1488571763       10.6205207737       -8.7257410215
 C        -5.3611379675        9.1319692505       -8.2920292918
 C        -5.8732571811       13.0479898704       -7.6325468047
 C        -3.9494417842       11.9146812583       -7.0042743724
 C        -9.1092693005        9.2224596559       -2.0885913036
 C        -6.5662692996        8.4610097695       -2.4571489264
 C       -10.2929496006        2.0753983957       -4.1101164824
 C       -11.2186016550        3.9324616341       -2.8313701143
 C        -8.2390322679        2.0251151077        4.6195740516
 C        -7.2202808627        0.4108333248        2.7581757540
 C       -12.8265883361        1.6230155965        7.3132782688
 C       -12.9747455106       -0.8404290659        7.7739246622
 C       -15.9189426806       -0.2650475770        0.6451422715
 C       -15.7473711102       -2.5287484945        1.9203400981
 H       -14.3541217352       -3.7931171882       -0.5882910603
 H       -13.4645770515       -2.5506271668       -1.6851621571
 H       -15.1770499968       -2.1827002708       -1.2592494813
 H       -14.8794043364       -1.5864948423        4.3715833812
 H       -15.9387039247       -0.2629685383        3.8476424239
 H       -14.4827586828        1.0292517820        5.6551112328
 H       -13.7708168956        1.2336585374        4.1315584589
 H       -10.3985984907       -1.5099650297        6.1523520758
 H        -9.4796899809       -1.0574743835        7.6160923892
 H        -7.7980835123       -1.4828902111        5.8386632256
 H        -7.8355775420        0.2464125517        6.1319197170
 H        -8.1942628226        1.3889220663        0.5686380216
 H        -8.2928201300        2.7717053027        1.5602380040
 H        -9.6766854874        3.8417401617        0.0089345723
 H       -10.8949173546        2.4843456438        0.2904033918
 H        -9.3148988949        4.8605108821       -4.3248094137
 H        -7.7023137472        4.0283430010       -4.7800435108
 H        -6.6590081898        5.9816408675       -3.2809442746
 H        -7.6916700771        5.3870182292       -2.0624505207
 H        -7.3921758194       10.9501323015       -3.8303385594
 H        -9.1440532280       10.8717432036       -4.2469803599
 H        -8.2328470130       12.1313186070       -5.9902206293
 H        -8.0078735326       10.3230796588       -6.4891309861
 H        -6.1016249303        8.4582353746       -8.6807286833
 H        -5.0204948782        8.8769570945       -7.2483797676
 H        -4.4956332902        9.1202853445       -9.0050519330
 H        -5.3882307187       13.8973689415       -7.0892170689
 H        -6.9071300832       13.1826469685       -7.5564876993
 H        -5.7744114430       13.0583651300       -8.7471646824
 H        -3.1888944945       11.1551699851       -7.2235602268
 H        -3.5526761878       12.2081298544       -6.0896672412
 H        -3.5303522647       12.7110387028       -7.6212757720
 H        -8.7971403801       10.2891587468       -2.2052891351
 H        -9.0954324757        9.0861749144       -1.0491149692
 H       -10.0325394054        9.1446322356       -2.5936146811
 H        -6.4918179342        7.7597267753       -1.5730629554
 H        -6.4991240039        9.5608437413       -2.2271043296
 H        -5.9826148268        8.0562774035       -3.2550329244
 H       -11.2421356011        1.4734315858       -4.0132582113
 H        -9.5551147403        1.2988713779       -4.2841471407
 H       -10.1996648049        2.7979722468       -4.9486316319
 H       -11.3224282713        4.4354231079       -3.7954650648
 H       -11.3068070275        4.7501022959       -2.1605705792
 H       -12.0193515998        3.3008891907       -2.6548096955
 H        -7.7793489765        2.8822382824        4.1589656781
 H        -7.5319648837        1.7309082754        5.4136895401
 H        -9.1772447965        2.3542211192        5.0984464911
 H        -6.7245668569        1.1334565961        2.1311195115
 H        -7.5845105995       -0.2719386269        2.0748840480
 H        -6.3759762258       -0.1368733789        3.2468591842
 H       -12.2812993623        1.8250204013        8.1550316307
 H       -13.9302479620        1.6819065675        7.4497495291
 H       -12.4903197013        2.3985948306        6.6264387160
 H       -13.0117541116       -1.7922598991        7.3427278367
 H       -14.0357906706       -0.5411865981        7.9916272797
 H       -12.5446816456       -0.9209349277        8.7761397041
 H       -16.6905519556       -0.6362118483       -0.0464111600
 H       -15.2656449128        0.4798338602        0.1735046526
 H       -16.5865584612        0.2227123649        1.3677734019
 H       -16.6660266886       -2.0389074332        2.3371583625
 H       -15.1639954729       -3.1544385617        2.5839698433
 H       -16.0531222723       -3.1539434799        1.0654840988
 Na      -11.4577119308       -1.0309985857        2.8037387999
