117

 C       -14.2680017209       -2.1436248550       -0.8487724658
 C       -13.9763720400       -1.9332397190        0.5383418418
 O       -12.8140006410       -2.0270471762        1.0379449875
 C       -15.1157007273       -1.3147545097        1.4229145228
 C       -14.3711109276       -0.5232658792        2.6242052546
 O       -13.5241952795        0.3065126328        2.2816900040
 C       -14.9605700968       -0.5124326758        4.1787878287
 C       -14.2566019645        0.4695800764        5.0610509270
 C       -12.8286973890        0.0739546048        5.4674745945
 O       -12.0927690861       -0.5839717928        4.8382457181
 C       -12.3075974433        0.3007820045        6.9446764043
 C       -10.8055518867        0.4853127967        6.9831230083
 O       -10.2937157065        1.5435253765        7.0787721641
 C        -9.8673752347       -0.8449579795        6.7123613704
 C        -8.7032483715       -0.5404323602        5.8254063759
 C        -9.0059633334       -0.4918583139        4.3046833856
 O        -9.6071189100       -1.4307568536        3.7435218329
 C        -8.2726282253        0.6893741027        3.3779278305
 C        -9.4856330516        1.2714593033        2.1575997451
 O       -10.7103776408        1.2659068201        2.4504474959
 C        -8.9883066500        2.1030336314        0.9406030209
 C       -10.1810850610        2.5329122721        0.0676374336
 C       -10.1356758586        1.8043720959       -1.3341593252
 O       -10.0850165990        0.5746118345       -1.3408047799
 C        -9.9771805344        2.6370679110       -2.7025194416
 C        -8.5427371234        3.3818204918       -2.7306114486
 O        -7.6919079088        3.0721152712       -1.9348460678
 C        -8.0605745543        4.2986792384       -3.8419885313
 C        -7.5297313894        5.6704909236       -3.4875560003
 C        -8.5282816624        6.8585692143       -3.2900852710
 O        -9.7565865354        6.6320661134       -3.0362993475
 C        -8.0779422734        8.3315092922       -3.1534799438
 C        -7.8076977474        8.9848629844       -4.5524629389
 O        -7.5046567536        8.3446872330       -5.5669198345
 C        -7.9478502252       10.5495622031       -4.5620944923
 C        -7.5559114791       11.1970098877       -5.9927821477
 C        -6.0990269225       11.4539997423       -5.9089833195
 O        -5.3594431642       11.5494898067       -4.9846061097
 C        -5.5054092137       11.7556794886       -7.3596456417
 C        -6.0020879741       10.5783917462       -8.2962299219
 O        -7.0484690950       10.5600709165       -8.8305311556
 C        -5.0912074099        9.2312933157       -8.3977252517
 C        -6.1166238407       13.0420074324       -7.7621847848
 C        -3.9320910701       11.6189919546       -7.4480540229
 C        -9.1463754549        9.0279677864       -2.3376751232
 C        -6.6746985506        8.5112844145       -2.3420369942
 C       -10.1184053013        1.6222925832       -3.8583413965
 C       -10.9284114526        3.7826083020       -2.7079642600
 C        -8.1842102001        2.1105504832        4.1190055935
 C        -6.9354756889        0.3169022381        2.7724238035
 C       -13.0767898922        1.5600568298        7.4694251806
 C       -12.5697397315       -0.9487185986        7.9254007336
 C       -15.9377730342       -0.2257448800        0.5883041040
 C       -16.1283504257       -2.3749458316        1.9691625957
 H       -14.9456004023       -2.9388204146       -1.0098789390
 H       -13.2657428601       -2.3628743077       -1.2628281847
 H       -14.5060264502       -1.2020531997       -1.2126393117
 H       -15.0902886915       -1.3573053973        4.8094674927
 H       -15.9734121506       -0.1182678124        3.9685559264
 H       -14.6837435519        0.5537732357        6.0297059108
 H       -14.2497223103        1.4935593491        4.6396388184
 H       -10.4182321415       -1.6787913288        6.2066417004
 H        -9.5068863990       -1.0249659559        7.7407952602
 H        -7.9552199591       -1.2802678524        5.8869556866
 H        -8.1923406633        0.3670891278        6.0881919087
 H        -8.3089007777        1.4540749104        0.3463913590
 H        -8.2879955713        2.9157472869        1.3300093823
 H       -10.0358705076        3.5944526573       -0.3126679580
 H       -11.1238167488        2.1960680307        0.4616192069
 H        -8.8486821439        4.3342794030       -4.6405600562
 H        -7.2090838648        3.7523958930       -4.2089789780
 H        -6.9572587121        6.0420995767       -4.3983387095
 H        -6.9128165624        5.7091589876       -2.5665652151
 H        -7.3679066711       11.0204389660       -3.7660012298
 H        -9.0058246646       10.7087210746       -4.4378646040
 H        -7.9692893772       12.1499428312       -6.0823369832
 H        -7.9100194176       10.5194390151       -6.7514539301
 H        -5.6204006439        8.5120451553       -8.9822670903
 H        -4.8440062341        8.8900116574       -7.3995668456
 H        -4.1443796948        9.4748014774       -8.8693571166
 H        -6.0114732786       13.6648590617       -6.9474212077
 H        -7.2073475659       13.0513959730       -8.0724866114
 H        -5.6392677967       13.5306062094       -8.6042415936
 H        -3.3617861656       10.6417154391       -7.4439775416
 H        -3.2876880465       12.1421325280       -6.6617885586
 H        -3.4508373450       12.0514386982       -8.2814169783
 H        -8.7788701763        9.9646899366       -1.9636888040
 H        -9.2976220891        8.3371408902       -1.4564195797
 H       -10.1256798433        9.0969089852       -2.8144394707
 H        -6.9127996576        8.6588105584       -1.3589607143
 H        -6.2375591894        9.3387025840       -2.7666954422
 H        -6.1809932793        7.5474776046       -2.3809833071
 H       -10.9444134639        0.9980450336       -3.6274811492
 H        -9.2868950648        0.9890985454       -3.9823083349
 H       -10.2490360528        2.1131322975       -4.7738604288
 H       -10.5460070764        4.5073058108       -3.4129238561
 H       -10.9852473870        4.4668297132       -1.8589016416
 H       -11.9967884406        3.5689048773       -3.0336566220
 H        -8.4880264899        2.9239097244        3.4312582197
 H        -7.1738952340        2.2583191313        4.4669577826
 H        -8.8848214085        2.1770340973        4.9266681177
 H        -6.3595416615        1.2123874634        2.4357181537
 H        -6.8639513107       -0.4114382499        1.8595372286
 H        -6.2790979948       -0.2132011057        3.4996591591
 H       -12.5584038496        2.1340885364        8.3124586260
 H       -14.0388683882        1.2184424665        7.7566968989
 H       -13.1426033639        2.3350703939        6.7193150970
 H       -11.7265598231       -1.7009632847        7.7811291466
 H       -13.5690953378       -1.4384027521        7.8634276779
 H       -12.5482133486       -0.6386620583        8.9597587322
 H       -16.3157821221       -0.7752829672       -0.2416166460
 H       -15.4332247339        0.6862362380        0.3000713078
 H       -16.8659785488        0.0364952590        1.1533539370
 H       -16.9640588011       -1.8831536627        2.4571258574
 H       -15.5072082402       -2.9798537968        2.6239847982
 H       -16.5274359014       -2.9971165966        1.1694891027
 Na      -11.5298258264       -1.1150628198        2.4759465351
