117

 C       -14.3599835158       -1.9271014315       -0.9156929583
 C       -14.1193630555       -1.7558763685        0.5976363916
 O       -13.0580748212       -2.2294463842        0.9886144772
 C       -15.1909470522       -1.0714180639        1.4400134630
 C       -14.4902524250       -0.3296213080        2.7268988425
 O       -13.7007631420        0.5552815262        2.4423241411
 C       -15.0500612799       -0.6702266555        4.1769352033
 C       -14.4341782663        0.2975989574        5.2123991199
 C       -12.9333244670        0.1028900705        5.6228127076
 O       -12.1016923903       -0.2395225193        4.7408348008
 C       -12.3529565337        0.2521684978        7.0779826544
 C       -10.7372079600        0.5224504378        6.8066347503
 O       -10.3059055289        1.6587926035        6.9388742270
 C        -9.8626931367       -0.6478952563        6.4024916309
 C        -8.6814534577       -0.2405474998        5.5978971233
 C        -9.0440595232       -0.1960964441        4.1258763980
 O        -9.6248807373       -1.1464109336        3.6759204139
 C        -8.4185364992        0.8870497603        3.3440158287
 C        -9.4893046682        1.3198117073        2.3260847586
 O       -10.6531438730        1.1817070452        2.5468455266
 C        -8.9119538567        1.8461903478        0.9519084970
 C       -10.0758678305        2.3969955042        0.1898162093
 C       -10.1090942374        1.5942499836       -1.2452103691
 O       -10.3803329822        0.4452335044       -1.2932434799
 C        -9.7900861461        2.4870617370       -2.4902991162
 C        -8.4067008218        3.3616113646       -2.3802802532
 O        -7.7133514322        3.3535914578       -1.4058385761
 C        -8.0487220961        4.1766103270       -3.7132548674
 C        -7.4876641210        5.5780174084       -3.8103406249
 C        -8.5327476109        6.5035955792       -3.2476880065
 O        -9.6098890495        6.2029585403       -2.7720962842
 C        -8.0446858948        8.1643722162       -3.0998960176
 C        -7.6506204136        9.0025079694       -4.5100764386
 O        -7.1368408296        8.3436629952       -5.3404972779
 C        -7.9982084946       10.4520566857       -4.5894852875
 C        -7.4685375586       11.2113605677       -5.8325345182
 C        -5.9684823341       11.3012464514       -6.1404459916
 O        -5.2313055831       11.2314637651       -5.1526242613
 C        -5.3001556222       11.7473910836       -7.5277747039
 C        -5.8776628064       10.4080625607       -8.5490210648
 O        -7.0111495508       10.6120859947       -9.0745540609
 C        -5.1071585051        9.1935387599       -8.6989868595
 C        -6.0617161439       13.0035134225       -8.3568610093
 C        -3.8911608603       12.0077138232       -7.3779956114
 C        -9.1966552211        9.0344858650       -2.4136274519
 C        -6.8053777477        8.3297536766       -2.3454275440
 C        -9.7646317446        1.5954461450       -3.7284799670
 C       -10.9391222660        3.4577344856       -2.6286831862
 C        -8.1017523434        2.1691968975        4.1125958525
 C        -7.1387251027        0.1286403039        2.6415907021
 C       -13.0157176635        1.4669996814        7.7478112567
 C       -12.6895234908       -0.9034708985        8.0043337621
 C       -16.1552814319       -0.0634004312        0.6198382823
 C       -16.0834538230       -2.3058967408        1.9991979998
 H       -15.3402355241       -1.6494480025       -1.1523978238
 H       -14.1861409726       -2.9831729910       -1.2361834834
 H       -13.6070631831       -1.1537204505       -1.2882503128
 H       -15.0554592324       -1.7396225163        4.4982233458
 H       -16.1265061197       -0.3978994342        4.2174911013
 H       -14.9858395919        0.3398178737        6.2222382760
 H       -14.4749469153        1.3311794430        4.7635144875
 H       -10.4791696999       -1.2529368634        5.7224283559
 H        -9.5630022899       -1.1198024531        7.3750330241
 H        -7.8788144913       -1.0431613973        5.6330628343
 H        -8.1708825721        0.6751671992        5.9606169057
 H        -8.2677527029        1.0737640541        0.4406519298
 H        -8.1951477031        2.6347336772        1.1449778734
 H        -9.9052025477        3.3764182052       -0.0191498622
 H       -10.9533933627        2.0176543603        0.7480631263
 H        -8.9488491939        4.1433435109       -4.3240464971
 H        -7.2838148941        3.5658602100       -4.2508288515
 H        -7.4637040999        5.7421071567       -4.8770297473
 H        -6.5159129738        5.8192113806       -3.3529390240
 H        -7.6168450926       10.9943645831       -3.7031237790
 H        -9.0982427905       10.6496427504       -4.6687074801
 H        -8.0169805590       12.2016173973       -5.6269189149
 H        -7.9435201686       10.7212725078       -6.6979157563
 H        -5.9853180964        8.4437705245       -8.8850920654
 H        -4.5545683547        8.9585863189       -7.8215178940
 H        -4.4488323545        9.2559468451       -9.5384717344
 H        -6.3342236184       13.9562136434       -7.7245413551
 H        -6.8950328540       12.7425315326       -8.9500147309
 H        -5.3743354386       13.4296458218       -9.0703039756
 H        -3.5117957906       11.8506526466       -6.4435241602
 H        -3.5783163922       12.9803669248       -7.5297926398
 H        -3.0541455498       11.3786517698       -7.8956469739
 H        -8.7612937874       10.0506114707       -2.2438777334
 H        -9.6103809160        8.5875422014       -1.5087569045
 H       -10.0858647892        9.0815155156       -3.1183148301
 H        -7.0497929399        8.0117013923       -1.2708892611
 H        -6.5371955281        9.4267280468       -2.4449817617
 H        -6.0492361745        7.6304428512       -2.7034037627
 H       -10.7934337197        1.2310981284       -3.9856186707
 H        -9.0476624443        0.6905360215       -3.7043377291
 H        -9.4344250156        2.2332480164       -4.6046188531
 H       -11.1034198696        4.0458386502       -3.5797757803
 H       -10.8326772469        4.3016709040       -1.9202661914
 H       -11.8693362836        2.9783287585       -2.4393100955
 H        -7.6958447454        2.8495018895        3.3539026949
 H        -7.3548579552        1.9083205830        4.8880808167
 H        -9.0112704309        2.7180633668        4.4859793606
 H        -6.8337348724        0.7080368245        1.8167463791
 H        -7.3198500324       -0.8362124539        2.3129653723
 H        -6.3134257433       -0.0517861788        3.2536178092
 H       -12.5791261197        1.7218811149        8.6907824872
 H       -14.1295971039        1.2786223509        7.9525187155
 H       -12.8244059392        2.3624680152        7.1150992904
 H       -12.2015811616       -1.7921756279        7.6848986891
 H       -13.7082239078       -1.0078276818        8.0398972044
 H       -12.4119036526       -0.7939601904        9.0560929419
 H       -16.9169892982       -0.5612957676       -0.0778226258
 H       -15.4978703733        0.6511115630        0.0476844096
 H       -16.6276353411        0.5579676923        1.3653437561
 H       -16.7651618672       -1.8957588365        2.7239169967
 H       -15.4002921419       -3.0368835583        2.4692652465
 H       -16.6570436173       -2.7421891988        1.1817222094
 Na      -11.5224043269       -0.9140743832        2.4402571574
