117

 C       -14.4638457491       -1.8419360947       -0.9720397460
 C       -14.1642910432       -1.6472968261        0.5567711500
 O       -13.1594821324       -2.1767292587        1.1793383304
 C       -15.2031253581       -0.9300573205        1.4861585882
 C       -14.5621742262       -0.3047844807        2.7126630488
 O       -13.7769297528        0.6435878073        2.5677129980
 C       -14.9420441340       -0.6469210001        4.1245116127
 C       -14.5072255477        0.2539780715        5.3381086385
 C       -13.0561431757        0.1011434421        5.5958460234
 O       -12.2012311796       -0.2205517431        4.7558758231
 C       -12.4000053985        0.3458874833        7.0439363628
 C       -10.8911917382        0.5511805998        6.8617370034
 O       -10.4792238679        1.6467847367        6.8605967249
 C        -9.9786579558       -0.7583705167        6.6113676956
 C        -8.7619752658       -0.2851216908        5.8143309311
 C        -8.9699347360       -0.2899499530        4.2514736043
 O        -9.6420216600       -1.0568974987        3.6002022838
 C        -8.3381523330        0.9560341310        3.3456801667
 C        -9.4113750198        1.3089323081        2.2981600551
 O       -10.6430727559        1.1667088968        2.4401793314
 C        -8.9431377913        1.8054117161        0.9499692767
 C       -10.0237595096        2.3561528804        0.1099349545
 C       -10.0277615245        1.5556166299       -1.2171904784
 O       -10.4910061154        0.4102183282       -1.1973251306
 C        -9.7613441776        2.4613842193       -2.4914564408
 C        -8.5213667363        3.5006371482       -2.3653046118
 O        -7.8713694959        3.5702137677       -1.3697624703
 C        -8.0996235753        4.0782220848       -3.7196874355
 C        -7.5451299467        5.5553458792       -3.7222675849
 C        -8.4660420330        6.6338116682       -3.2182083821
 O        -9.5368561137        6.1694075571       -2.6502050803
 C        -8.0623088677        8.1176856156       -3.1426933138
 C        -7.5717430193        8.7690385735       -4.5943692109
 O        -6.8887944128        8.2919015818       -5.4650249149
 C        -7.8978657335       10.3793391419       -4.6515647358
 C        -7.5313284442       11.1846525537       -5.9925839972
 C        -6.0145125267       11.3144792855       -6.1865404914
 O        -5.1908529085       11.0242266140       -5.4189055617
 C        -5.3826463821       11.7189743705       -7.6626891376
 C        -5.8062282653       10.4824005231       -8.6010442772
 O        -6.8794066307       10.5347671196       -9.1381972349
 C        -4.9599974473        9.2258436849       -8.7469318746
 C        -6.0903606396       12.9924637832       -8.2544496771
 C        -3.9236731539       11.9304001324       -7.5028984856
 C        -9.2504120015        8.6865316333       -2.2940006318
 C        -6.8198172014        8.2975202499       -2.0950697699
 C        -9.4021063472        1.5871144135       -3.7585988178
 C       -10.9911794873        3.4280812534       -2.6487716450
 C        -7.7991911502        2.3256755517        4.0591678218
 C        -7.2365761420        0.2767246429        2.5772666540
 C       -12.8214673621        1.6782014380        7.7301659441
 C       -12.5466549018       -1.0646741969        7.7905084714
 C       -16.1489388781       -0.0129678733        0.8140803071
 C       -16.0958004191       -2.2831471729        1.9315590830
 H       -15.2875629076       -1.0962830023       -1.0733936411
 H       -14.9979408347       -2.8784644907       -1.1982276527
 H       -13.5853539711       -1.5173307849       -1.6337057918
 H       -14.5548511260       -1.6333396641        4.2911622267
 H       -16.0563843392       -0.7400682561        4.4493365290
 H       -14.9462436078       -0.1291254403        6.2121759511
 H       -14.7710941887        1.2703541384        5.2706244791
 H       -10.4986899239       -1.5319192615        6.1361611473
 H        -9.6013473465       -1.0056949919        7.5366407201
 H        -7.8691276588       -0.9277943894        6.0802802422
 H        -8.4501107834        0.7658821162        6.1231239893
 H        -8.5166527189        0.9453007629        0.5787532010
 H        -8.1521920704        2.4455883322        1.0167980829
 H        -9.7403067091        3.3192222404       -0.2160186366
 H       -10.9471842988        2.1149524375        0.6273366476
 H        -8.8928628151        3.8483637191       -4.5455075636
 H        -7.2155815754        3.5359298466       -3.9759565816
 H        -7.4090109635        5.7141158863       -4.7449654800
 H        -6.6084359319        5.6140257208       -3.1715427448
 H        -7.3295969746       10.9603173959       -3.9223396818
 H        -8.9556576721       10.6381950837       -4.5268360279
 H        -8.2395968201       12.0642358718       -5.8268952278
 H        -7.8364199881       10.6369559978       -6.8948817874
 H        -5.8141169231        8.4924937486       -8.6824793549
 H        -4.2137293544        9.0084583164       -7.9775918162
 H        -4.4601449218        9.1650592219       -9.7315843445
 H        -5.9809730347       13.9020708641       -7.6763407345
 H        -7.1493699906       12.8708080447       -8.6380452568
 H        -5.5704854872       13.2207772679       -9.1399214177
 H        -3.5917627822       12.2431406382       -6.5280561202
 H        -3.3470838105       12.5835800590       -8.1118947975
 H        -3.3616707378       11.0263243112       -7.4992222142
 H        -8.9952525969        9.6353997060       -1.9651173424
 H        -9.4755450220        7.9659384693       -1.5232660069
 H       -10.1935096273        8.7276453558       -2.8987241347
 H        -6.9816872996        7.4149216117       -1.4243102863
 H        -6.9421478372        9.3041467893       -1.6210090899
 H        -5.8161091083        8.0975295817       -2.6577952872
 H       -10.2796282211        1.1393199164       -4.2559126606
 H        -8.7144352657        0.7331382965       -3.4002469726
 H        -8.8352848429        2.0573302669       -4.6080458175
 H       -11.3286784970        3.8315821129       -3.5499914600
 H       -10.7211443342        4.2967879793       -2.0474439188
 H       -11.8908026822        3.0860950151       -2.1750317100
 H        -7.0938783789        2.9330498946        3.4441882293
 H        -7.4409854401        2.0588035496        5.0231317309
 H        -8.6992659567        2.9585279028        4.1085087559
 H        -6.8926650036        0.8638792540        1.7426625528
 H        -7.5298323535       -0.7311571021        2.2127070395
 H        -6.4447831362       -0.0264056163        3.1486310754
 H       -12.4434176290        1.7344843466        8.8091549398
 H       -13.8646680216        1.7564855346        7.8569844483
 H       -12.3842657867        2.5129912189        7.1943752258
 H       -12.3054729035       -1.9338300575        7.1053193647
 H       -13.5535449977       -1.1255101129        8.0963989570
 H       -11.9673162532       -1.2775922612        8.6997094037
 H       -16.7944641736       -0.6878688683        0.2744321188
 H       -15.6562591389        0.6642033760        0.0701530419
 H       -16.6640576184        0.6487064838        1.4880407233
 H       -16.8237969383       -1.9694117537        2.6247442622
 H       -15.3519654199       -2.9065647274        2.5153531730
 H       -16.5868232671       -2.8367357760        1.0946032621
 Na      -11.6810049612       -0.7392407477        2.4437168335
