117

 C       -14.6318430011       -1.5944391569       -0.7781637179
 C       -14.2763657276       -1.3169909158        0.6708943874
 O       -13.1399311877       -1.5446575931        1.1286464120
 C       -15.4743705066       -0.9166974840        1.6541846903
 C       -14.9266130072       -0.1718590278        2.9604245980
 O       -14.2417345730        0.8788758948        2.8578327961
 C       -15.1791223718       -0.7888538611        4.3558217168
 C       -14.5895530737        0.1619948060        5.3939754784
 C       -13.0978095957       -0.0169826483        5.6486830683
 O       -12.2806147822       -0.3347257153        4.7222225304
 C       -12.4529754745        0.3004870025        7.0516870696
 C       -10.8518501932        0.6591801899        6.7221124406
 O       -10.5177284678        1.7494264166        6.5369622154
 C        -9.7056993039       -0.5280396788        6.6050550685
 C        -8.5168637732       -0.1703993409        5.7696438095
 C        -8.8774670196       -0.1706702746        4.3128947171
 O        -9.7945813382       -0.8276723789        3.8734831107
 C        -8.1762280268        0.8032065624        3.4242515383
 C        -9.1994105487        1.3692406649        2.3730901933
 O       -10.3806804993        1.3414414617        2.6360368232
 C        -8.7461298078        2.0879348058        0.9900810279
 C        -9.9324527186        2.5286042906        0.1138251835
 C       -10.1186802282        1.7847471202       -1.3230827576
 O       -10.4262287981        0.6236710564       -1.2003214322
 C        -9.7435642982        2.4528489428       -2.7921578202
 C        -8.5495287358        3.5608401030       -2.5848910590
 O        -8.3232553893        4.0345545139       -1.5340904627
 C        -7.7484391676        4.1386633100       -3.9191522518
 C        -7.2208382240        5.5041192983       -3.5174010632
 C        -8.3369838324        6.5291179369       -3.0536700377
 O        -9.4723439497        6.1757641016       -2.8708726297
 C        -7.9621808509        8.0754464689       -2.9116188454
 C        -7.4625570219        8.4858657783       -4.3270800162
 O        -6.9352297451        7.8555524759       -5.1843872409
 C        -7.7627092353        9.9862469920       -4.7572532143
 C        -7.2844510487       10.3008471803       -6.2400540113
 C        -5.8031327527       10.7827318185       -6.3760278932
 O        -4.9817156842       10.5110723715       -5.5850497964
 C        -5.5204411460       11.4945098057       -7.7660303144
 C        -5.7694415301       10.3077688746       -8.7892994587
 O        -6.7198516915       10.4104186048       -9.5421993489
 C        -4.7369619289        9.1500275308       -8.9491048549
 C        -6.3674107663       12.8042445434       -7.9449072373
 C        -4.0352870545       12.0565265659       -7.7486497042
 C        -9.1566835735        8.9618977659       -2.4020942595
 C        -6.7246387406        8.3072462585       -1.9429512861
 C        -9.2023837615        1.2996859023       -3.6284265637
 C       -10.9281472458        3.0744565080       -3.6057805508
 C        -7.7717789446        2.0926455326        4.1709815837
 C        -6.9893883630        0.0300164986        2.8269921143
 C       -13.1724736124        1.5500818662        7.7481327186
 C       -12.7979694328       -1.0253001558        7.8595950083
 C       -16.2309919045        0.2007142509        0.9413895461
 C       -16.4416137594       -2.1138160683        2.0453261094
 H       -13.9697596198       -1.0553417551       -1.3401632096
 H       -15.6297094015       -1.3289529369       -1.0636455052
 H       -14.2036820672       -2.5392698429       -0.9557465279
 H       -14.6775403456       -1.7415797254        4.3982690812
 H       -16.1939900463       -1.0105524114        4.7431821648
 H       -15.1156454062        0.0075005503        6.4354570087
 H       -14.7281817759        1.2887464746        5.1159138367
 H       -10.2930882541       -1.4031902645        6.1238972631
 H        -9.2870782838       -0.8984574052        7.6164780571
 H        -7.8034987663       -0.9691232320        5.9642286072
 H        -8.0586177557        0.7565425099        6.0685374626
 H        -7.9313096200        1.3356932824        0.5699832140
 H        -8.1532901622        3.0409955046        1.1783913698
 H        -9.8543551975        3.5472199683       -0.0554370314
 H       -10.8433906042        2.1366990645        0.6739171969
 H        -8.4744579852        4.1834667543       -4.7686899617
 H        -6.9515707341        3.4438911415       -4.2287154073
 H        -6.6927646573        5.9846302650       -4.3590936358
 H        -6.6034795352        5.3342396413       -2.5875588841
 H        -7.2062714875       10.7080422383       -4.1379530075
 H        -8.8578503151       10.1930498836       -4.6232131481
 H        -8.0243432796       11.0022829071       -6.7733113162
 H        -7.4936428472        9.3478894691       -6.6603486413
 H        -5.2558827833        8.1881998237       -9.3001907163
 H        -4.2337057686        8.9242800492       -8.0526141223
 H        -4.0279915481        9.4827557625       -9.6585882911
 H        -6.0084054115       13.7564431524       -7.4440481515
 H        -7.3156854277       12.5172084962       -7.4437735993
 H        -6.7125415740       13.0560669600       -8.9051490146
 H        -3.7150201505       12.5849350790       -8.6190670449
 H        -3.2731665939       11.2713187615       -7.6967779589
 H        -3.6301686312       12.7357804908       -6.9575775234
 H        -8.8441184669        9.9924045024       -2.2965692580
 H        -9.4536487621        8.4189274194       -1.5196674662
 H       -10.0457268812        9.0129165027       -3.1582183367
 H        -6.7162248913        7.4479448087       -1.2751924808
 H        -6.8509257667        9.1917144829       -1.3773649029
 H        -5.8524605218        8.4352491373       -2.5561578296
 H        -9.8111423003        0.4606876983       -3.7056074880
 H        -8.1696693007        0.9855754286       -3.3349454707
 H        -9.1523240075        1.5754495512       -4.6696103105
 H       -10.6837899063        3.4351516186       -4.6326119752
 H       -11.5169721857        3.8280202374       -2.9987933591
 H       -11.7440090882        2.3813331036       -3.7737820470
 H        -7.6695239161        2.8674522405        3.4045688912
 H        -6.8087957084        1.9205722009        4.6260128532
 H        -8.6178678259        2.3093553804        4.8778745436
 H        -6.3239521577        0.7072078354        2.2671591574
 H        -7.3385660107       -0.8073449682        2.1627534766
 H        -6.3981133611       -0.4886056976        3.5141296753
 H       -12.9289132808        1.4929617770        8.8263699784
 H       -14.2630626416        1.5072123905        7.8536888600
 H       -12.9003345366        2.5259237900        7.3151124804
 H       -12.5771650624       -1.9401417233        7.3107640888
 H       -13.7984296065       -1.0318192750        8.0186703366
 H       -12.3031434983       -1.1562631492        8.8294091880
 H       -16.3774368777       -0.0922965251       -0.1161895089
 H       -15.7917747544        1.2445197443        1.0194071826
 H       -17.1299089206        0.1931631251        1.4868364292
 H       -17.2004613304       -1.8182000600        2.6752514507
 H       -15.8358695955       -2.9071795912        2.5511865285
 H       -16.8744934238       -2.5228189150        1.1338485162
 Na      -11.9069369945       -0.2998987941        2.6222122821
