117

 C       -14.7260604650       -1.7351334762       -0.7048534113
 C       -14.3530990827       -1.1032766451        0.7257410170
 O       -13.2970390686       -0.9888547041        1.2476813940
 C       -15.6073386716       -0.8122598368        1.6278733052
 C       -15.0825324982       -0.0739002124        3.0352983292
 O       -14.4000201264        0.8914014709        2.8686964609
 C       -15.3054553961       -0.6708444033        4.4421586100
 C       -14.6506771278        0.1298128688        5.5933613049
 C       -13.0955781269       -0.1861278359        5.7336769811
 O       -12.4505155922       -0.6301420082        4.8497284351
 C       -12.4331811474        0.2483488362        7.2058388243
 C       -10.9580745849        0.6037056375        6.7802641441
 O       -10.6648334113        1.7772268129        6.3610914283
 C        -9.9413924691       -0.5262978151        6.8013193496
 C        -8.7330315277       -0.2460673251        5.8516907899
 C        -9.0375093257       -0.2241959807        4.3411489677
 O        -9.8696012418       -0.9317677364        3.7937955966
 C        -8.2117284513        0.8849040252        3.5061253346
 C        -9.2007659292        1.6355014780        2.2627856526
 O       -10.3837252374        1.6731088966        2.4442778270
 C        -8.6585280152        2.1323828694        0.8124471676
 C        -9.9399656552        2.6132542924       -0.0838884407
 C        -9.9663465334        1.8589617754       -1.4202038908
 O       -10.4468084962        0.7736007044       -1.3340070099
 C        -9.5102740735        2.4480473050       -2.7867369808
 C        -8.5264509117        3.5877590278       -2.5391718571
 O        -8.2406745720        4.0055390141       -1.3836682466
 C        -7.8440448284        4.1585078947       -3.7705614213
 C        -7.2441419020        5.4721316532       -3.3531979786
 C        -8.3309201968        6.5658046872       -3.1735736597
 O        -9.5192868579        6.2948148108       -3.2405875638
 C        -7.8341698193        8.0403025243       -2.7925603432
 C        -7.4542008047        8.4849629181       -4.2825214637
 O        -6.9605578552        7.5782725163       -4.9728231694
 C        -7.6808931525        9.7481721566       -4.9528039351
 C        -6.9979653281        9.7758463592       -6.3740166338
 C        -5.6404063179       10.5227627099       -6.5177733691
 O        -4.8066650356       10.3119741217       -5.6052601417
 C        -5.4703193064       11.3830423144       -7.8175884666
 C        -5.6752844646       10.3371189026       -9.0404430655
 O        -6.6267132873       10.5351546596       -9.7770487174
 C        -4.7857014820        9.1688498285       -9.0210156638
 C        -6.7397778550       12.3831668667       -7.9885587420
 C        -4.0506655462       12.0208508585       -7.7687604504
 C        -9.1083027814        8.7853044614       -2.2285095447
 C        -6.5600403557        8.2347032991       -2.0053286830
 C        -8.8024562526        1.3215861963       -3.5706714988
 C       -10.8086118065        2.8327018969       -3.4347951286
 C        -7.6045821684        2.1297264367        4.1207933276
 C        -7.0734308559        0.1756266179        2.7541189709
 C       -13.0584105022        1.5632985874        7.8241430901
 C       -12.4690537529       -0.9210287800        8.2083955402
 C       -16.5279935380        0.4170927941        1.0295940703
 C       -16.4511837949       -2.0114025955        1.8345988209
 H       -14.0107875984       -1.6235955279       -1.5807837828
 H       -15.7238523784       -1.2694030730       -0.8918764972
 H       -14.6099099262       -2.8549424498       -0.4684692912
 H       -14.8111636906       -1.6990140700        4.5211307171
 H       -16.3579358351       -0.8993424764        4.6159143847
 H       -15.1197440817       -0.0758593031        6.5065664009
 H       -14.6189095542        1.1576540977        5.4895409763
 H       -10.4514586925       -1.4170910197        6.6215146235
 H        -9.7088817033       -0.5718958703        7.8198359440
 H        -7.9111836033       -1.0085077658        6.0293937882
 H        -8.3300793896        0.7851625756        6.0372662507
 H        -8.1309768466        1.3563906723        0.3746183693
 H        -7.9924082882        2.9050135924        0.9627016919
 H       -10.0105846056        3.7492881274       -0.1965631562
 H       -10.8360095386        2.1668605000        0.2633059398
 H        -8.4880687703        4.1009151751       -4.6187382244
 H        -7.0522458193        3.3877521495       -3.9734636436
 H        -6.4233209230        5.8146134023       -3.9530669201
 H        -7.0036916323        5.2742864600       -2.3396945465
 H        -7.1936588358       10.5292907919       -4.3287720003
 H        -8.7591065323        9.8889597996       -4.8718658592
 H        -7.6273333105       10.1682340294       -7.1198570553
 H        -6.9998500655        8.6306231597       -6.5728124571
 H        -4.8921429588        8.6376396331       -9.9654217732
 H        -5.0380927818        8.4070370909       -8.2454209650
 H        -3.7513784645        9.5828725773       -8.8510829661
 H        -6.9337470769       13.1245354443       -7.2188985687
 H        -7.6477655348       11.8963272478       -8.2212593363
 H        -6.5393564379       12.9824437130       -8.9265978898
 H        -3.3528554930       11.9118901901       -8.5751061517
 H        -3.4885159642       11.7136518878       -6.9083253019
 H        -3.9320097952       13.1501181382       -7.6290147478
 H        -8.8624943543        9.7534240598       -1.7188851718
 H        -9.6129600148        8.0242500334       -1.6119070351
 H        -9.6896993363        9.1037424671       -3.0119348247
 H        -6.8920248550        8.4234380992       -0.9299179740
 H        -5.9609498771        9.1529426731       -2.3861192631
 H        -5.8273389749        7.4120672607       -2.2007892271
 H        -9.5122725159        0.4410778793       -3.7718826625
 H        -7.8081618794        0.9848743834       -3.2061335504
 H        -8.6980467837        1.6036158314       -4.6638875795
 H       -10.4774410183        3.4728244022       -4.2252620563
 H       -11.5954066560        3.2445970941       -2.9010808874
 H       -11.3417004524        2.0692153189       -3.9976612104
 H        -7.1113842227        2.5471226442        3.2379897847
 H        -6.7243427416        1.8026065099        4.7339580763
 H        -8.3187321301        2.7558580992        4.6104950587
 H        -6.6909274332        0.7920008649        1.9709251372
 H        -7.3096542216       -0.7743535277        2.3882934245
 H        -6.1535663575        0.1512693193        3.4131629324
 H       -12.5511733229        1.9219266640        8.6777059207
 H       -14.1157205398        1.5394316175        8.1651846687
 H       -13.0950335756        2.3044536154        7.0117784433
 H       -11.7060000558       -1.6361212227        7.9848426640
 H       -13.3780504348       -1.5860046460        8.2079487178
 H       -12.1905885832       -0.5358127785        9.2057881884
 H       -17.0963629488        0.0240254760        0.1802186897
 H       -15.8608672584        1.1766618929        0.6957416000
 H       -17.2576271732        0.8115830688        1.8271070059
 H       -17.2776411832       -1.5982896417        2.5361442478
 H       -16.0840477767       -2.9175375742        2.2469332074
 H       -16.9566155652       -2.2147331280        0.8966938374
 Na      -11.8172464904       -0.0062587607        2.6632907910
