117

 C       -14.6864818074       -1.7306710146       -0.4102787949
 C       -14.5009314224       -0.9650725187        0.9007664976
 O       -13.3122611802       -0.7867801683        1.0346258190
 C       -15.7262730851       -0.6080016826        1.7521176663
 C       -15.0514612651        0.0061755560        3.0251719273
 O       -14.2944229106        1.0048943708        2.8772085588
 C       -15.3241320421       -0.7070462075        4.3675611855
 C       -14.7435930577        0.0211671448        5.5676250968
 C       -13.2273728503       -0.2309026198        5.9458814856
 O       -12.6241402387       -0.8559548424        4.9907156574
 C       -12.4313690157        0.2738929208        7.1661521596
 C       -10.8848348579        0.6094883053        6.6809338762
 O       -10.6218387625        1.6998007678        6.2922688508
 C        -9.8307332656       -0.5512758120        6.6213520512
 C        -8.6291314731       -0.1263001551        5.7446963711
 C        -9.0410610847        0.0161455676        4.2817380049
 O        -9.7666187066       -0.8782007516        3.8302412613
 C        -8.3224159519        1.0942797942        3.2460906023
 C        -9.2782399742        1.6831294156        2.1881460306
 O       -10.4436958576        1.8858941166        2.4512430789
 C        -8.7357220523        2.0451054502        0.8420496528
 C        -9.9763369565        2.5532168917        0.0296463068
 C        -9.9903758438        1.6871081430       -1.3254049635
 O       -10.4886441774        0.6065172329       -1.5141543710
 C        -9.3651245308        2.3736605511       -2.6462921788
 C        -8.3398820251        3.5234629693       -2.4017014399
 O        -8.0730381636        4.0316604104       -1.3459898925
 C        -7.7970812486        4.2617045195       -3.6291196867
 C        -7.1145008337        5.4410159235       -3.2102544383
 C        -8.3192385855        6.3683081971       -3.1006826919
 O        -9.4045720897        6.1976388397       -3.4529171198
 C        -7.8311443800        8.0496735151       -2.8550172117
 C        -7.4340224274        8.4308030580       -4.3439365347
 O        -6.8923313912        7.4762440194       -4.8829270998
 C        -7.6692507692        9.7839277871       -5.0014160698
 C        -7.0427945647        9.6250254331       -6.4296776122
 C        -5.7104086026       10.4248838530       -6.5868417337
 O        -4.8563299412       10.3342259060       -5.7724500927
 C        -5.4993354074       11.3415292474       -7.8457921493
 C        -5.6534237286       10.3345460159       -9.1046426823
 O        -6.4765575249       10.4795288498       -9.9789535495
 C        -4.6744913652        9.1695251909       -9.1063473646
 C        -6.6390609845       12.3332271141       -7.8561607812
 C        -4.1914814054       11.9887777097       -7.8775048028
 C        -8.9805610119        9.0244351399       -2.2736549462
 C        -6.5547987018        8.0349477143       -2.0619930678
 C        -8.6920354179        1.3020354319       -3.4420730976
 C       -10.7714808742        2.7669026982       -3.3200055828
 C        -7.6630079993        2.1945418075        4.1530069189
 C        -7.1923839811        0.1108431597        2.6192611697
 C       -13.1984942742        1.4559803765        7.9088045987
 C       -12.5619740026       -0.7148463417        8.3737112211
 C       -16.6271963273        0.4986757609        1.1067851028
 C       -16.5630311787       -1.9835163386        1.8660345850
 H       -13.8625751565       -1.7191486922       -0.9983381714
 H       -15.5839232148       -1.2888451659       -0.8790960857
 H       -14.6566385029       -2.8122705948       -0.0573918314
 H       -15.1169464602       -1.8101261101        4.4424617665
 H       -16.3600714302       -0.6429680402        4.4184864826
 H       -15.2101870326       -0.3614681004        6.4774766137
 H       -14.8651978707        1.0643713436        5.5071881992
 H       -10.3397294471       -1.3645067217        6.1287976415
 H        -9.7144914222       -0.9805441518        7.6214044195
 H        -8.0023505705       -1.0252472820        5.7019814000
 H        -8.0775292747        0.6918138895        6.0925516584
 H        -8.1705174832        1.1965894178        0.3236519180
 H        -8.0304018023        2.8613461750        0.9658040388
 H        -9.8043541002        3.5754032081       -0.2277950842
 H       -11.0102421638        2.3942136072        0.4173019355
 H        -8.6635758425        4.5218765756       -4.1295694959
 H        -7.2784168868        3.6292604124       -4.4018604282
 H        -6.4756585530        5.8487217391       -4.0033093684
 H        -6.6713742739        5.2562410084       -2.2665636407
 H        -7.1293799565       10.5240654213       -4.4331435645
 H        -8.7218810035       10.0171302926       -4.9053806338
 H        -7.7136850181        9.8283519227       -7.2474575316
 H        -6.8682581647        8.5316908828       -6.5176341974
 H        -4.3286483613        8.7449445132      -10.1663561618
 H        -5.2468024650        8.3383022562       -8.7537725048
 H        -3.8822308505        9.3756905526       -8.4408204112
 H        -6.7887865883       12.6173386368       -6.7588296305
 H        -7.5364346307       12.1238193710       -8.3402638893
 H        -6.2528170787       13.2563773648       -8.2113770039
 H        -3.5272191602       11.6569386199       -8.5973161609
 H        -3.5695622492       12.0767956372       -6.9826715840
 H        -4.1305376326       13.1213396619       -8.1330236796
 H        -8.6151411452       10.0293714802       -2.1094560894
 H        -9.3425691798        8.5917852602       -1.4256922696
 H        -9.7780373580        9.1559325536       -3.0366835289
 H        -6.7064317300        8.6499490420       -1.1276611614
 H        -5.6898485321        8.4190681180       -2.6552090850
 H        -6.2237087730        7.0228686766       -1.8641812887
 H        -9.2667469212        0.4483586631       -3.5880215245
 H        -7.6932124052        1.0358396248       -2.9970045302
 H        -8.5077235547        1.5920191561       -4.4605105080
 H       -10.5979275383        3.3188891058       -4.2307544497
 H       -11.4969309011        3.2936759037       -2.7331979556
 H       -11.3100501017        1.9537540746       -3.6401647670
 H        -6.7898523595        2.4398119853        3.6573985541
 H        -7.2502105007        1.6114675066        4.9401623961
 H        -8.3077870454        3.0093056090        4.4641865836
 H        -6.4291877840        0.5065178668        1.8534787698
 H        -7.6723791035       -0.8284042503        2.2228139125
 H        -6.5139535706       -0.0790236992        3.4710516970
 H       -12.6669471706        1.9371737194        8.6625855726
 H       -14.1372318080        1.0606760467        8.3688815482
 H       -13.6695436074        2.1711038723        7.2550918445
 H       -11.9963308488       -1.7179134513        8.2401894356
 H       -13.5445606437       -1.0609610157        8.5006940216
 H       -12.0960937488       -0.1864425683        9.3149333423
 H       -17.3004024000        0.0452894997        0.3429050749
 H       -15.9418800316        1.1847039094        0.6311059358
 H       -17.2409067090        0.9213201801        1.8534340301
 H       -17.4683945449       -1.9914148828        2.4706371158
 H       -15.9131692732       -2.8213787064        2.2840671983
 H       -16.8103373690       -2.2358564439        0.8136875630
 Na      -11.9098926273        0.0926954493        2.7172025295
