117

 C       -14.8590268444       -1.7786051815       -0.2551296523
 C       -14.5219871869       -0.7838493877        0.7844162354
 O       -13.4059342560       -0.3050919136        0.8374044103
 C       -15.6028933255       -0.4799314294        1.8932109849
 C       -14.9909156580        0.1087565516        3.2485276580
 O       -14.2453908174        1.0192147933        3.2501237606
 C       -15.3425029069       -0.6460683627        4.5244527135
 C       -14.7871258076       -0.0858457057        5.7954139139
 C       -13.3143108768       -0.4317818686        5.9897912427
 O       -12.8200826129       -1.2133822304        5.2825734775
 C       -12.5091609039        0.2572358058        7.1207606037
 C       -11.0898510811        0.5110718876        6.5976989661
 O       -10.8756306374        1.7032106438        6.3029166694
 C       -10.1211261208       -0.5983642986        6.4238729993
 C        -8.8977624740       -0.0674567326        5.7416865683
 C        -9.1624635393        0.1211784926        4.1362441587
 O       -10.0775328938       -0.4762413683        3.6290211011
 C        -8.3006019378        1.1374032372        3.2495369841
 C        -9.4305481517        1.7261240110        2.4009486759
 O       -10.5420417643        1.9827069081        2.8563116282
 C        -9.0867938695        1.9803102204        0.9776844190
 C       -10.2471871924        2.2507449340        0.0629348063
 C       -10.0802623868        1.4944231490       -1.2967306055
 O       -10.4093186217        0.3220400088       -1.3747264783
 C        -9.2739389459        2.1333885095       -2.5760289848
 C        -8.1542009268        3.2236107893       -2.2150463764
 O        -7.9843599650        3.5314253759       -1.0286922396
 C        -7.4084588306        3.9309063236       -3.3932336365
 C        -7.1001984763        5.4369100441       -3.0978928489
 C        -8.2548762020        6.5651500621       -3.2198177418
 O        -9.5107980921        6.4117005844       -3.3931035315
 C        -7.5734539450        8.0110874074       -3.0566353672
 C        -6.9738105172        8.2972464309       -4.4597415573
 O        -6.5527282486        7.4010139867       -5.2015213345
 C        -7.5869210029        9.6253027193       -5.1355036552
 C        -7.2252573987        9.8056179265       -6.6451560139
 C        -5.7220131918       10.3692707934       -6.7618775489
 O        -4.9181854990       10.2591556062       -5.8344320528
 C        -5.5127917273       11.2663040093       -8.0191803375
 C        -5.5783757273       10.2916130137       -9.3577025847
 O        -6.2749108918       10.5101745414      -10.2936143850
 C        -4.6024500477        9.2027632104       -9.2734679983
 C        -6.7282720332       12.3436410878       -7.8801447300
 C        -4.1863071398       11.8817616720       -8.0104764208
 C        -8.6772019045        9.0135452761       -2.5121802861
 C        -6.4498852603        8.1204983989       -1.9266786641
 C        -8.4814431043        1.0510420822       -3.4506164653
 C       -10.3926516440        2.8799960133       -3.4267005256
 C        -7.5932336713        2.4627857055        3.8133496738
 C        -7.3116246129        0.2704350587        2.4575407033
 C       -13.0849857199        1.6489264451        7.4737088518
 C       -12.3232247711       -0.8402832570        8.2099381428
 C       -16.5579031718        0.6594616311        1.1258846029
 C       -16.5862243757       -1.6830335671        2.2702626170
 H       -13.9243779951       -1.8643361773       -0.8209519714
 H       -15.6873850322       -1.4813429762       -0.8301778333
 H       -14.9705604536       -2.7596785243        0.2015246367
 H       -15.0445790539       -1.6780218167        4.3647319197
 H       -16.4820921852       -0.6757187938        4.5946904797
 H       -15.2025747260       -0.2400178865        6.8246181192
 H       -14.7788026009        1.0408439811        5.5433320646
 H       -10.7561296741       -1.3908199953        5.8744709347
 H       -10.0259556897       -1.1526676235        7.4024539489
 H        -8.0149129316       -0.5906573733        6.0631570093
 H        -8.8567439976        0.9992372336        6.0741070152
 H        -8.5748663028        1.1333450645        0.5308602340
 H        -8.3324502462        2.8534513877        0.9588503398
 H       -10.4356400023        3.3775084113       -0.1252842966
 H       -11.2239336366        1.9232717579        0.4505916942
 H        -8.1192730411        3.8177218976       -4.2997039208
 H        -6.5880632286        3.3440663088       -3.7354918567
 H        -6.5239714112        5.7256713027       -3.9786498731
 H        -6.5986687210        5.5577423984       -2.0826529129
 H        -7.2479797479       10.5423976472       -4.6162563594
 H        -8.6909726456        9.6132073569       -5.0843649653
 H        -8.0688299121       10.1900329492       -7.2304891569
 H        -6.8912055390        8.8873429107       -7.1772275105
 H        -3.6974998104        9.5861260830       -9.5985388359
 H        -4.7945523613        8.3820589508       -9.9536809179
 H        -4.4098753449        8.9235976002       -8.2294747950
 H        -7.2999690892       12.2772348865       -6.9800221872
 H        -7.4242145026       12.1461898957       -8.7432921689
 H        -6.2410168800       13.3867751555       -7.9786988320
 H        -3.2932024569       11.3019835371       -7.7611077286
 H        -4.1728118251       12.7539450277       -7.4108552021
 H        -3.8366919780       12.3888598131       -8.9512846916
 H        -8.5669177664       10.0717862641       -2.8921250841
 H        -8.6130027405        9.0973771783       -1.3568483929
 H        -9.6326347437        8.6150345065       -2.7742931384
 H        -5.9203733830        9.0589563555       -2.0188752078
 H        -5.6581666968        7.3964643088       -1.9320475918
 H        -6.9228352703        8.0637566123       -0.9508149835
 H        -8.8411200538        0.0132902507       -3.4898386651
 H        -7.5667128316        0.9391721491       -2.9829747267
 H        -8.1729913023        1.3743504271       -4.4219074102
 H       -10.1752484375        3.1790859683       -4.4644515570
 H       -10.7544742550        3.7974010804       -2.9272725736
 H       -11.4044146099        2.3349751432       -3.4566619352
 H        -7.3369911631        3.0557813315        2.9108282708
 H        -6.7334965531        2.2360776046        4.4535577560
 H        -8.4124548066        2.9027541018        4.3319907082
 H        -6.5237460312        0.8026842290        1.9526542355
 H        -7.8786829558       -0.1966390511        1.6872132082
 H        -6.7613258438       -0.4557054020        3.1282183103
 H       -12.4991493012        2.1907913509        8.2457692901
 H       -14.1349647549        1.6847457549        7.6931283315
 H       -13.1148059172        2.2849665127        6.5782865232
 H       -12.2651589408       -1.7623315456        7.7789097298
 H       -13.3161739606       -0.9100689528        8.7394851679
 H       -11.5575779223       -0.6908202933        8.8714081739
 H       -16.8906060630        0.4202100982        0.1501721963
 H       -15.8316720486        1.4398822817        1.0558238885
 H       -17.5313974123        0.8527744664        1.6860220052
 H       -17.3589477935       -1.3275441447        3.0061053598
 H       -16.1242042183       -2.4846008217        2.7866201483
 H       -17.1165717682       -2.0869874112        1.4291978537
 Na      -12.0987298397        0.2495076823        3.1416888904
