117

 C       -14.8883997127       -1.7521396436       -0.0732075320
 C       -14.4763691302       -0.6475129058        0.9764535948
 O       -13.4342296194       -0.0531187261        1.1297410166
 C       -15.6430946511       -0.3761252085        1.9692728417
 C       -15.1705768763        0.0642511361        3.3376150314
 O       -14.3865886051        1.0499697446        3.4902948044
 C       -15.6352799555       -0.6412373060        4.7032493036
 C       -14.9003477719       -0.0163149958        5.9087641918
 C       -13.4201362793       -0.4575304818        6.0734898911
 O       -12.9761491227       -1.3433374256        5.2578592644
 C       -12.5224232069        0.3156779198        7.1115178980
 C       -11.0621629774        0.6653277691        6.4836995882
 O       -10.8143290079        1.7477403279        6.1203971994
 C        -9.9527597292       -0.6021300575        6.3592967941
 C        -8.6914431240       -0.1084322776        5.6255601473
 C        -9.0840594568        0.0753507356        4.1782201052
 O       -10.1109819143       -0.4367753994        3.6983924395
 C        -8.4983610146        1.1916742743        3.2363164051
 C        -9.7037945395        1.8635591909        2.3207628494
 O       -10.7396665756        2.1322630184        2.8757231759
 C        -9.4063039981        2.1557994993        0.8402360949
 C       -10.5528365252        2.1502928457       -0.1998681567
 C       -10.0761750745        1.3514144768       -1.4499179813
 O       -10.1503145805        0.1287780898       -1.4183789915
 C        -9.3082155429        2.0551436958       -2.5689240128
 C        -8.1378764742        3.0927711773       -2.0432177988
 O        -7.7186325991        3.2059900837       -0.9491872752
 C        -7.3853896857        3.8757949433       -3.1935964571
 C        -6.8868407415        5.3480259237       -2.8261365539
 C        -8.1062696871        6.4444324681       -3.0168354197
 O        -9.2333056866        6.2108059896       -3.1746904362
 C        -7.4955327886        7.9635910965       -3.1487891187
 C        -7.0640409019        8.2144875626       -4.6934824586
 O        -6.0969193757        7.5675815693       -5.0402282811
 C        -7.6172535380        9.4615859382       -5.3792903798
 C        -7.1937793931        9.6340161888       -6.8521680422
 C        -5.8439253442       10.4550071786       -6.8580804382
 O        -4.9470102955       10.2079076869       -6.1069840196
 C        -5.5833901072       11.3402901018       -8.2230658342
 C        -5.4679002974       10.4031730265       -9.3935181760
 O        -6.2492385609       10.5967613439      -10.3233927408
 C        -4.5207192716        9.1777563321       -9.4835436524
 C        -6.5670878569       12.4691176276       -8.5988357026
 C        -4.0521838348       11.9757741339       -7.9365371161
 C        -8.5976135723        8.9004508330       -2.7413219516
 C        -6.1218937293        8.1820427773       -2.2981736515
 C        -8.6135385700        0.8213407745       -3.3427308354
 C       -10.2245464772        2.8129396810       -3.5681900389
 C        -7.6855101575        2.3265913217        4.1113706427
 C        -7.3976564354        0.3057685997        2.4506421033
 C       -13.2939399965        1.4740531836        7.6693126645
 C       -12.5497165144       -0.6736984204        8.2885474726
 C       -16.2422755212        0.9458898388        1.4589590766
 C       -16.7067070180       -1.5617660913        2.0448030839
 H       -14.0503348291       -1.8915953012       -0.8640910328
 H       -15.9123249466       -1.4583649049       -0.5080867884
 H       -14.9150437743       -2.6610709507        0.5150434581
 H       -15.4150587223       -1.7482291900        4.5551262134
 H       -16.6812889414       -0.5947075126        4.9635294342
 H       -15.3488323418       -0.1872150846        6.8519954180
 H       -14.8974826375        1.0159594687        5.7039366283
 H       -10.4202360146       -1.4631649719        6.0191261863
 H        -9.7302940082       -0.9362268226        7.3334702403
 H        -7.8476561865       -0.8775447293        5.6838129991
 H        -8.3170009138        0.8528811673        6.0071033521
 H        -8.6437951704        1.5084442299        0.4768596622
 H        -9.0215313743        3.1286707424        0.9572212033
 H       -10.8226227595        3.0961669521       -0.5345917063
 H       -11.5238429403        1.9085932499        0.2960977429
 H        -7.9491968846        3.9377138861       -4.0811916462
 H        -6.5789774451        3.1566708670       -3.5281207568
 H        -6.0400942086        5.6104103065       -3.4876052084
 H        -6.6459869474        5.3629677683       -1.8132308169
 H        -7.2753649884       10.2789786258       -4.7044730010
 H        -8.7114345510        9.4758074813       -5.4256470660
 H        -7.9908209639       10.2394228081       -7.3717311513
 H        -7.0939120809        8.7280519000       -7.4688687964
 H        -3.5678940174        9.0810760120       -8.9123525941
 H        -4.2773110197        9.1677074091      -10.5837100429
 H        -5.0749457456        8.2430120358       -9.2459885811
 H        -6.8058115066       12.9262975074       -7.6139533042
 H        -7.5096344230       12.0649612561       -8.9751881307
 H        -6.0890422126       13.1006814206       -9.2513688219
 H        -3.5444363063       11.4486680779       -7.0677105808
 H        -4.0191082511       13.0875256653       -7.7595953679
 H        -3.3102287123       11.9206842982       -8.6226089068
 H        -8.2586936754        9.8141177661       -2.3506982295
 H        -9.1607750990        8.4531250187       -1.9668766143
 H        -9.3260402045        9.0539559728       -3.6052439579
 H        -5.2810945025        8.6063110362       -2.9303635086
 H        -5.6018529002        7.2664677782       -1.9157794225
 H        -6.2804601034        8.8678981495       -1.3994029971
 H        -9.4661476205        0.1590878884       -3.5631259199
 H        -8.0215193217        0.0466126554       -2.6975155553
 H        -7.9302450693        0.9896346000       -4.2359783077
 H        -9.8064289870        3.1391862732       -4.5147618895
 H       -10.5114072607        3.7811237498       -3.1017814620
 H       -11.1628025410        2.3806870961       -3.7584506816
 H        -7.5245902098        3.1802201548        3.4667857842
 H        -6.7788583027        1.8722025718        4.5121516045
 H        -8.4194137535        2.5501050641        4.9381176677
 H        -7.0618114999        0.6722552544        1.4850903364
 H        -7.9568642538       -0.6228932920        2.1800164774
 H        -6.6435122249        0.1630560959        3.1241615485
 H       -12.6711985998        1.9293189199        8.4540151636
 H       -14.2096167353        1.0798295634        8.1064588654
 H       -13.6467743008        2.3293820735        7.1305265846
 H       -12.1021305191       -1.7126482748        8.0712510203
 H       -13.5059151514       -0.7404662210        8.7469536222
 H       -11.9085715847       -0.1771494703        9.0614289201
 H       -16.5623528204        0.9607424627        0.3868486781
 H       -15.5194688318        1.7654015595        1.6687641657
 H       -17.1573406715        0.9547535305        1.9454000936
 H       -17.3720533199       -1.3018633034        2.8235447097
 H       -16.2667835134       -2.5368322485        2.4455884161
 H       -17.3191266934       -1.8960194350        1.1770884264
 Na      -12.2965815155        0.4175839639        3.3718828493
