117

 C       -14.4126325467       -1.4949011150       -0.0234643701
 C       -14.4421699953       -0.5697816922        1.2551032938
 O       -13.4144931477       -0.1524595436        1.7590017579
 C       -15.8116718440       -0.2117402732        1.9377844743
 C       -15.3787893397        0.2352915750        3.6489861281
 O       -14.5273552760        1.0264645834        3.8215391285
 C       -15.7880343655       -0.7000188025        4.8882105207
 C       -15.0700170368       -0.1834874040        6.1850111611
 C       -13.5199137878       -0.4005187603        6.0994878144
 O       -13.0069215332       -0.9370552804        5.2138102660
 C       -12.5525421443        0.2633512065        7.2844302788
 C       -11.1720706007        0.5245707391        6.5491980953
 O       -11.0093233825        1.5946736862        5.9005462088
 C       -10.0445262827       -0.4592802371        6.7621871351
 C        -8.9806702096       -0.2369104808        5.6232245999
 C        -9.4678417158        0.0787687976        4.1314819181
 O       -10.3080054016       -0.6878541612        3.7432789025
 C        -8.8451366086        1.2380332521        3.2561685091
 C        -9.8573905586        1.8595142300        2.3093479649
 O       -10.9664235555        2.1396831851        2.7489150360
 C        -9.3552118061        2.4255255496        0.9170654679
 C       -10.4667304401        2.1025985341       -0.1817064888
 C        -9.8582696515        1.2886941835       -1.3252935412
 O       -10.1842375110        0.1454253031       -1.3837823213
 C        -9.1392899212        1.9353163477       -2.5946652834
 C        -8.0677972394        3.0480665408       -2.2383507002
 O        -7.4458437350        2.8475636047       -1.1632558145
 C        -7.3315814484        3.8694722894       -3.3062693400
 C        -6.7257870646        5.1083793914       -2.6609389808
 C        -7.6277261480        6.3758565258       -2.9736373014
 O        -8.8819839959        6.0928253608       -2.9412371473
 C        -7.2567697836        7.9301231949       -3.1317989984
 C        -6.9535502220        8.1711469427       -4.9277814580
 O        -5.9837083193        7.6670841985       -5.2817790541
 C        -7.7831507678        9.1056951103       -5.8383241710
 C        -7.1653958075        9.5361212798       -7.0882103684
 C        -5.8185510110       10.3763432803       -7.1281769827
 O        -5.0423781319       10.3200630525       -6.2069504232
 C        -5.3062900139       11.4126058648       -8.4472505274
 C        -5.3818489743       10.3801277511       -9.6475325399
 O        -6.1889345937       10.4683857235      -10.5570482178
 C        -4.3394085764        9.2652276860       -9.5721480265
 C        -6.4663727276       12.5365323511       -8.6260587024
 C        -4.0037956372       12.0039773127       -8.1634266987
 C        -8.5643425646        8.6565167949       -2.6665592589
 C        -6.0409292579        8.2402501750       -2.3656209814
 C        -8.4316463199        0.9119115283       -3.5288190335
 C       -10.2822289101        2.5871219348       -3.3059402661
 C        -8.2102600494        2.4070530859        4.0303217864
 C        -7.7295053859        0.5521553270        2.3849275601
 C       -13.0355834234        1.6184383381        7.7546443457
 C       -12.3372086119       -0.8192711285        8.3210879297
 C       -16.4079936544        1.1338645145        1.5223565071
 C       -16.9107252765       -1.1810072265        1.8826950816
 H       -13.7082508881       -1.3214626772       -0.6818753440
 H       -15.3712557378       -1.3067770185       -0.3890771210
 H       -14.4834109884       -2.5477359543        0.3295662079
 H       -15.4222712748       -1.6938172945        4.5890083973
 H       -16.8265395693       -0.8200011507        5.1545769459
 H       -15.5400935309       -0.7934295084        7.0262549603
 H       -15.1701531295        0.9379666616        6.3985311864
 H       -10.4697900413       -1.5126106119        6.9587504845
 H        -9.4703271776       -0.4145123944        7.7582223846
 H        -8.3429343033       -1.0505770212        5.5579928806
 H        -8.4246077573        0.6046286406        5.9699409372
 H        -8.2984148790        2.1228873536        0.5572815838
 H        -9.4364567833        3.5733493360        1.0422088090
 H       -11.2279502662        2.9379431602       -0.4036026013
 H       -11.2320975671        1.5893265382        0.3349663635
 H        -7.9082549500        3.9822797103       -4.2635247132
 H        -6.5894004658        3.1593309266       -3.6241094205
 H        -5.6847097797        5.1440414439       -3.0408183171
 H        -6.6727257966        4.8864805323       -1.5183955695
 H        -7.7470538107        9.9215923419       -5.1301842359
 H        -8.8188247258        8.8741889367       -6.0106726865
 H        -7.7913664812       10.2750633120       -7.5660737254
 H        -7.2183275322        8.7083780534       -7.8186607426
 H        -4.5128332155        8.8825691940       -8.5188706717
 H        -3.3560054048        9.6232470478       -9.6440506104
 H        -4.4382281677        8.4023931292      -10.1709544896
 H        -6.1629560715       13.5113388288       -8.2155779642
 H        -7.1499523285       12.2524238281       -7.8838923760
 H        -6.8915884403       12.5049045711       -9.6894447483
 H        -3.4808444619       11.5500485483       -7.3549219356
 H        -4.0383250073       13.0510907784       -7.9115798874
 H        -3.0994932438       11.9277685562       -8.9893064451
 H        -8.3409543838        9.7220797420       -2.4167459440
 H        -8.8897694871        8.2858567488       -1.6903403337
 H        -9.3837106528        8.5180461760       -3.2752407298
 H        -5.1220168982        8.4570447990       -2.8608527705
 H        -5.7465094936        7.4224996881       -1.7466079774
 H        -6.2316564821        9.0274156168       -1.7259866085
 H        -8.9506356086        0.6833239183       -4.4197965832
 H        -8.2433024613       -0.0400291418       -3.1440469799
 H        -7.5485117532        1.3614054047       -3.7964329263
 H        -9.9845766136        2.9928594297       -4.2686842840
 H       -10.7685056446        3.4386461790       -2.9402489209
 H       -10.9998237323        1.7992911653       -3.5537714988
 H        -7.6313798049        2.8757809705        3.2684200307
 H        -7.5497308834        1.8635507667        4.6726270641
 H        -8.8697584908        3.0050814045        4.5515902966
 H        -7.0579472795        1.3633969864        1.9956251270
 H        -8.1914955310        0.1236310998        1.4952779910
 H        -7.1279341772       -0.2077271907        3.0545207678
 H       -12.3405423358        2.0969290963        8.3747799853
 H       -14.0377992269        1.7035430486        8.1977149502
 H       -13.0280743225        2.3545228858        6.9459193959
 H       -11.6092037822       -1.5451626894        8.0428775153
 H       -13.3253205738       -1.2933860198        8.4585327767
 H       -12.0649924607       -0.4559119271        9.3434344670
 H       -17.0525466417        1.0955210274        0.6788912354
 H       -15.5835287659        1.7874576614        1.4148768166
 H       -17.1134836323        1.3952567504        2.3870338844
 H       -17.7438785733       -0.8314034225        2.5965695868
 H       -16.7259399903       -2.1936359920        2.0901561466
 H       -17.4018955234       -1.2050617851        0.9123766303
 Na      -12.2208897085        0.5423144137        3.4292910122
