117

 C       -14.4417291557       -1.2620453377        0.1678107438
 C       -14.5261897109       -0.5032729664        1.4631867238
 O       -13.3803263110       -0.2736911156        1.8959759916
 C       -15.8476768642       -0.0375913490        2.2529735754
 C       -15.2789113460        0.1404522439        3.7434218864
 O       -14.6545960035        1.1992191541        3.9630935157
 C       -15.7335239806       -0.7713331338        4.8988584485
 C       -15.0485065733       -0.2855753330        6.2501482939
 C       -13.4975901501       -0.3018546085        6.0992999683
 O       -13.0638211573       -0.8364932424        5.0930377208
 C       -12.5847021962        0.2054419016        7.2379628919
 C       -11.2515403544        0.4957931589        6.4807661763
 O       -11.2129810990        1.4550520920        5.7500881679
 C       -10.0520933010       -0.3792140492        6.6660720120
 C        -8.9828254319       -0.1411206023        5.6165270568
 C        -9.6492398793       -0.0102064613        4.1971391656
 O       -10.5097473240       -0.7874980213        3.6870306824
 C        -8.9257647497        1.2195078357        3.3005425224
 C       -10.0253922203        1.9900169558        2.3737746335
 O       -11.2064688493        2.2239960843        2.5418658391
 C        -9.4148991031        2.6135099795        1.0845436349
 C       -10.2729161009        2.1749279589       -0.2133818622
 C        -9.7345923929        1.2240369064       -1.3311937494
 O       -10.0680004539        0.0730166368       -1.4793041823
 C        -9.0805966802        1.9541725229       -2.6732518902
 C        -7.7817458597        2.8256976920       -2.2085829857
 O        -7.3085728015        2.7761826739       -1.1208014796
 C        -7.2452476217        3.7581625333       -3.3181231034
 C        -6.5714501228        5.2256425221       -2.8539388905
 C        -7.6584634095        6.3693827289       -2.9823771315
 O        -8.8288918544        6.1855914460       -2.9063184668
 C        -7.1208819334        7.7897746432       -3.2648504513
 C        -6.8779342610        8.1249068012       -4.8425467523
 O        -5.9757125472        7.5844506400       -5.4171405631
 C        -7.8452726219        9.0885820720       -5.7981474259
 C        -7.1179360737        9.5491234258       -7.2302977572
 C        -5.8116850113       10.4276580966       -7.1500299316
 O        -5.0762583352       10.3873291879       -6.2053117883
 C        -5.4024227322       11.2445793493       -8.3577118869
 C        -5.3532055729       10.3872799217       -9.6369141720
 O        -6.1021339973       10.4499614768      -10.6037659330
 C        -4.2184177822        9.3555154524       -9.6090338833
 C        -6.5508105251       12.3681596591       -8.6250800998
 C        -3.9743407804       11.8760618289       -8.3705966201
 C        -8.3943315633        8.6047243876       -2.9128713698
 C        -5.9361609462        8.2037139319       -2.3449018543
 C        -8.4667961854        0.8819696485       -3.5405269265
 C       -10.4460463042        2.5920968505       -3.3097786142
 C        -8.3887376268        2.4602657947        4.0025197061
 C        -7.6863817542        0.4877434127        2.5021030991
 C       -12.8771307192        1.5908235043        7.8623938978
 C       -12.5568572230       -0.7646280227        8.4687561106
 C       -16.3439686355        1.2957859817        1.5227812901
 C       -16.9854710916       -1.1455668301        1.9446031355
 H       -13.5006037358       -0.8324830299       -0.3051675223
 H       -15.2913052537       -1.2059937881       -0.5188904306
 H       -14.3632381634       -2.3203440739        0.4797977116
 H       -15.6895187819       -1.9500624680        4.7105796674
 H       -16.7918671787       -0.5123819540        5.0101077979
 H       -15.4192522923       -1.1296431843        6.9349082373
 H       -15.2851288496        0.7081460476        6.6625113275
 H       -10.4201302271       -1.4244572168        6.5716036950
 H        -9.5940873685       -0.5802936387        7.6693984741
 H        -8.3387368391       -1.0652858529        5.6282910368
 H        -8.3925209906        0.7629784457        5.7722437747
 H        -8.3451972526        2.4243621917        0.9695379335
 H        -9.6136830413        3.6193999343        1.0703030543
 H       -10.6991927551        3.1067375030       -0.6134977135
 H       -11.2800932377        1.9432909358        0.1840413500
 H        -8.0289799846        3.8366760998       -3.9819627998
 H        -6.5632903151        3.1135401251       -3.9563948161
 H        -5.6244983845        5.3353429889       -3.4628969775
 H        -6.2610528536        5.1338742455       -1.7811921262
 H        -8.3975450539        9.9140752240       -5.2891257528
 H        -8.5664965229        8.3070613317       -6.0675207658
 H        -7.6901775159       10.1037145055       -7.9443202980
 H        -6.9099450738        8.6026722536       -7.8188742325
 H        -4.6301013899        8.4662914369       -9.0344613545
 H        -3.2884844773        9.6505257713       -9.1813022874
 H        -3.9683823300        8.9768714993      -10.5487869533
 H        -5.8834668696       13.3192687601       -8.7478315422
 H        -7.1887377538       12.6398264440       -7.7912579105
 H        -6.9693060277       12.0625423664       -9.5780020911
 H        -3.3766343234       11.2947252919       -7.6863082575
 H        -3.8609733167       12.9005763205       -7.8610273159
 H        -3.3484049987       11.8255185136       -9.2180387894
 H        -8.2708442568        9.6819265957       -3.1804632535
 H        -8.6000505803        8.6319457979       -1.8628486366
 H        -9.3650261445        8.1452390664       -3.3546245836
 H        -4.9333006050        8.2763312689       -2.7673705430
 H        -5.7909927359        7.5372253031       -1.5397759527
 H        -6.1136122002        9.1625612829       -1.9556532854
 H        -8.9120202237        0.7258032509       -4.4553212192
 H        -8.5372550845       -0.0968212095       -3.0162759121
 H        -7.4549364488        1.1020950489       -3.7525135276
 H       -10.1890757319        3.1138498454       -4.2840839502
 H       -11.0455936472        3.4093276262       -2.8995429662
 H       -11.0136110282        1.7374857111       -3.6400828448
 H        -8.0699094189        2.9395520299        3.1297714945
 H        -7.5191437758        2.1474280092        4.5641085977
 H        -9.1066878604        3.0193665330        4.6296488408
 H        -6.8513712081        1.2092441592        2.4921308070
 H        -7.9164163333        0.2452099861        1.4468674618
 H        -7.4186724234       -0.3508438082        3.0683521927
 H       -12.1252322325        1.8612651819        8.5354392152
 H       -13.8646661128        1.6236224468        8.4133815669
 H       -12.8970183768        2.4609101185        7.2225786310
 H       -12.1362793542       -1.6905623229        8.1196232007
 H       -13.4893278126       -0.8508550445        8.7916288965
 H       -11.9769413703       -0.4517041735        9.3128697251
 H       -16.5636205101        0.8489480687        0.5135728721
 H       -15.5038418164        1.9868930006        1.4006456486
 H       -17.2609103064        1.7002566540        1.8856693803
 H       -18.0043970586       -0.9731980204        2.2540567786
 H       -16.7280625968       -2.1588183417        2.2346125673
 H       -17.0357204881       -1.2434289051        0.8807304651
 Na      -12.1822229381        0.5932707836        3.5860364106
