117

 C       -14.7174385024       -0.9883632760        0.2698934427
 C       -14.5588199039       -0.4875361888        1.7063935857
 O       -13.3877687352       -0.5381774291        2.1414589763
 C       -15.6845508523        0.1542630872        2.5599904916
 C       -15.4121853026        0.4311008557        4.0769646327
 O       -14.9697038855        1.4781140062        4.4753016138
 C       -15.9055035895       -0.6373944778        5.1336002417
 C       -15.2661640264       -0.2848600972        6.4665656223
 C       -13.6737057178       -0.4891150413        6.2492652860
 O       -13.3240476258       -1.0853423264        5.3054731629
 C       -12.7175615340        0.1704760567        7.3118746888
 C       -11.3892863706        0.4134997794        6.5700135312
 O       -11.2563368180        1.4453140477        5.8486278806
 C       -10.3358046647       -0.6289738584        6.6140208585
 C        -9.2632573783       -0.1931719333        5.6066420125
 C        -9.6673684956        0.1067283783        4.1242199178
 O       -10.5681988964       -0.5617952979        3.6612139203
 C        -9.1088680538        1.3681029844        3.2747809998
 C       -10.0706698109        1.9006535520        2.1335932631
 O       -11.3151098207        1.9155690581        2.2063491166
 C        -9.2755445784        2.4825713560        0.9031783544
 C       -10.2100513803        2.5844600485       -0.3968103251
 C        -9.5751149305        1.4691303542       -1.3914955754
 O        -9.4183247721        0.3726620875       -0.9080696312
 C        -8.9008650933        2.0303980540       -2.7481716165
 C        -7.5675756525        2.8877417385       -2.4359305050
 O        -7.0818482382        2.9554931057       -1.3330427161
 C        -6.9584665579        3.6557579604       -3.6987241971
 C        -6.5841353958        5.1528590751       -3.4067032360
 C        -7.6684773244        6.2537041132       -3.2226841164
 O        -8.8801506561        6.1531417954       -3.0072617792
 C        -7.0004056366        7.6735622577       -3.5154141622
 C        -6.6841013344        7.7649776433       -4.9535103606
 O        -5.8904981726        7.1267696707       -5.4933840017
 C        -7.4277508233        8.9251955885       -5.9185322936
 C        -6.8384868675        9.0989370072       -7.2993744405
 C        -5.7014780229       10.2565610965       -7.2586525712
 O        -5.3425728507       10.5459253506       -6.1426256570
 C        -5.3677863124       11.1081366675       -8.5101454439
 C        -5.2357611435       10.1270700769       -9.7588138976
 O        -6.1169457572       10.3040634774      -10.5930627144
 C        -4.0783032228        9.0946912620       -9.8123938153
 C        -6.6274381034       11.9306238574       -8.6826016935
 C        -4.1312437536       11.9910222933       -8.0600237533
 C        -8.0831101384        8.7340823837       -3.0421788010
 C        -5.6341548267        8.0180141746       -2.8418317093
 C        -8.4137688885        0.7550899123       -3.5798945812
 C        -9.8706119006        2.8815548053       -3.5841185862
 C        -8.6804203203        2.5860860618        4.1253593402
 C        -7.7959006417        0.7729989100        2.5220914764
 C       -13.2614172989        1.5873048129        7.7417438116
 C       -12.5968920431       -0.9162953320        8.4465723271
 C       -16.1136171373        1.4903932475        1.8199293990
 C       -16.8419379821       -0.7854064896        2.4003588266
 H       -13.7892261693       -0.8545494822       -0.2012889909
 H       -15.4058135001       -0.4331297131       -0.2325198846
 H       -15.1566361891       -1.9629028670        0.3006632664
 H       -15.3854133071       -1.5618444233        4.8051563599
 H       -16.9459023962       -0.6584024891        5.1162467289
 H       -15.4383645627       -1.0800155388        7.2287195647
 H       -15.5897472717        0.6836449138        6.8383998560
 H       -10.6740165329       -1.6949471935        6.4552219021
 H        -9.9220220465       -0.7285235711        7.6584398903
 H        -8.4244419995       -0.8090354506        5.5932623554
 H        -8.9337884981        0.7848532165        5.8907387500
 H        -8.2926353709        1.9958887895        0.4702190499
 H        -9.0080484559        3.5704991403        1.2216402939
 H       -10.3962163709        3.6755364659       -0.7021951791
 H       -11.2369074523        2.2906043546       -0.1967159905
 H        -7.6242301198        3.4605702513       -4.5426106348
 H        -6.0498657204        3.0790352697       -3.9192405920
 H        -5.8380565373        5.3855046799       -4.1244557620
 H        -6.0578048548        5.1222192072       -2.4271075608
 H        -7.4409339272        9.9354891298       -5.4932452257
 H        -8.4963892311        8.7940214482       -6.0615740045
 H        -7.5673689101        9.1317316653       -8.0568398914
 H        -6.2167343420        8.2297637995       -7.6021130775
 H        -4.1158806741        8.5047953983      -10.8054450371
 H        -4.3875304369        8.3196067039       -9.1041815721
 H        -3.0909580903        9.3030587118       -9.5881738736
 H        -6.9250652714       12.0619678876       -9.7803987007
 H        -6.4896014770       12.8402186628       -8.2177190914
 H        -7.3290803040       11.3342196631       -8.1417204771
 H        -3.1144316686       11.5970911187       -8.0921074982
 H        -4.1488901833       12.2677237889       -6.9687361728
 H        -4.1031816700       12.8600191919       -8.7714561395
 H        -7.8106555684        9.7632695222       -2.8805477246
 H        -8.5805074664        8.3118946636       -2.2423403493
 H        -8.8511581722        8.6999410816       -3.8056706444
 H        -4.8544222727        7.2411249150       -2.5919749549
 H        -5.8249646258        8.4680962203       -1.8416107343
 H        -5.0520179105        8.6747685489       -3.4378801800
 H        -8.0349339828        0.9549133668       -4.5574757777
 H        -9.2606279362       -0.0070304993       -3.6482514723
 H        -7.5895335600        0.2630800163       -3.0622467782
 H        -9.8629164676        2.7804458251       -4.6961766292
 H        -9.7516124877        3.9114752576       -3.3391544610
 H       -10.8704446225        2.6042901877       -3.2974945514
 H        -8.6244421694        3.4640918081        3.4902927714
 H        -7.7292684845        2.3080876278        4.5992842752
 H        -9.4958427564        2.6934291844        4.8510149009
 H        -7.2330357414        1.4953753525        1.8737611979
 H        -8.2686324084       -0.0378613169        1.9476609903
 H        -7.1919010203        0.1561618845        3.2115121452
 H       -12.7695392698        2.0379864650        8.5359753239
 H       -14.3204123105        1.6845962675        8.1031252913
 H       -13.1478459235        2.2828712094        6.8900748365
 H       -12.7757967509       -1.9120780460        7.8859149916
 H       -13.2856369217       -0.7826706086        9.2448130597
 H       -11.5228260994       -0.9934313281        8.9183760347
 H       -15.9009850259        1.4107676862        0.7571422484
 H       -15.6246951868        2.3092154856        2.3008923036
 H       -17.1712953901        1.6163970796        2.1283876497
 H       -17.7449562102       -0.5066117255        3.0476331934
 H       -16.6651853574       -1.8362879739        2.5764896349
 H       -17.3258640392       -0.7477027983        1.4237157705
 Na      -12.6915067594        1.0259767919        3.8306595940
