117

 C       -14.8493846661       -0.9505301690        0.5825537931
 C       -14.6923753970       -0.3540848589        1.9864219303
 O       -13.5861051712       -0.4816503780        2.3482666607
 C       -15.9202226619        0.2885702396        2.6887289909
 C       -15.5929758238        0.3727647571        4.1028682305
 O       -14.8847663439        1.3258310915        4.4458922760
 C       -16.1883733763       -0.4100914478        5.2098033024
 C       -15.4550779932       -0.3851588089        6.4885187698
 C       -13.8615915017       -0.6144447013        6.3598945186
 O       -13.3668667599       -1.3313575674        5.4596145241
 C       -12.7521305132        0.1445910266        7.4306871160
 C       -11.5086628923        0.5239662393        6.5549894309
 O       -11.4274968228        1.6444990943        6.1407454393
 C       -10.4416840309       -0.6046013617        6.2201688794
 C        -9.2280195009       -0.2094071669        5.3987192441
 C        -9.7596748159        0.2097829658        3.9297587717
 O       -10.8693910198       -0.1749927760        3.7051387738
 C        -9.0151561476        1.3309163558        3.2073037489
 C       -10.0046336905        1.8393062809        2.0200127380
 O       -11.1500471574        1.5903654020        2.1187225694
 C        -9.3582839457        2.8284465475        0.9967273342
 C       -10.0012387178        2.7668618848       -0.4097500299
 C        -9.3627816835        1.7477566836       -1.3835235205
 O        -8.9577583015        0.7405346449       -0.8497666200
 C        -8.8261316304        2.1381962329       -2.8602459295
 C        -7.4838185660        3.0763577590       -2.6733473789
 O        -7.0817814532        3.2240066684       -1.5087830491
 C        -6.9071982974        3.7821266926       -3.9360723131
 C        -6.2415787696        5.0269697751       -3.4545239535
 C        -7.4033752994        6.1152982608       -3.3794075211
 O        -8.6095690000        5.8517561107       -3.2876790482
 C        -6.9607953158        7.5701681729       -3.5387639640
 C        -6.7349171433        7.6064586116       -5.2644858103
 O        -5.9202848437        6.6401721704       -5.5660132670
 C        -7.3627457020        8.5674447759       -6.1952459815
 C        -6.4338461049        8.8921585491       -7.3800315053
 C        -5.7574407546       10.1714015987       -7.1509304424
 O        -5.3315557276       10.5405511395       -6.0666011917
 C        -5.5294812454       11.0801315000       -8.4898262208
 C        -5.2834953318        9.9824086240       -9.7600936936
 O        -6.0245379611        9.9995956875      -10.7307214600
 C        -4.0392830342        9.1441713660       -9.6176297553
 C        -6.7088463980       12.0785449087       -8.6894425250
 C        -4.1595718559       11.8194474008       -8.4546036237
 C        -7.8674067780        8.5603170521       -2.9942657045
 C        -5.6992441520        7.7231168966       -2.7754141021
 C        -8.3223347095        0.8120595563       -3.5883078062
 C        -9.9964743300        2.9159744188       -3.6967747148
 C        -8.8290877065        2.7274103743        4.1170503046
 C        -7.5651337043        0.6891272435        2.9116739750
 C       -13.4407978136        1.3692288944        8.0032452544
 C       -12.4755670996       -0.7940491407        8.7025741457
 C       -16.0864321676        1.7690399088        2.1240440048
 C       -17.0868581412       -0.5778255771        2.3253974072
 H       -13.8585860909       -1.0455896571        0.1919422634
 H       -15.4313161506       -0.2353438058       -0.1167850484
 H       -15.5866963912       -1.8446689154        0.6650858816
 H       -16.2104962633       -1.3968278911        4.7693038649
 H       -17.2246765112        0.1457972042        5.3001334633
 H       -15.7005323311       -1.2264343443        7.1673487740
 H       -15.6970042705        0.5970070361        6.9921386695
 H       -10.9051755979       -1.5048736471        5.8070847177
 H       -10.0703472172       -1.0258095931        7.1735588515
 H        -8.3704057637       -0.9238091531        5.2673366357
 H        -8.7517768395        0.6823303456        5.8837462834
 H        -8.3508409097        2.7723677809        0.8987204694
 H        -9.5630457634        3.7441446504        1.4530670953
 H        -9.8422534051        3.7270886214       -0.8915827067
 H       -11.1290369472        2.7456060838       -0.2155393524
 H        -7.8391010391        4.0746566383       -4.4696859684
 H        -6.4150925649        2.9937769814       -4.5003229017
 H        -5.4604275953        5.2183861181       -4.2527628438
 H        -5.6747821087        4.9479707400       -2.5051687656
 H        -7.8084501416        9.3641984515       -5.5999873633
 H        -8.2764119567        8.1465394592       -6.6563583140
 H        -7.0504817999        9.1065374498       -8.3216213901
 H        -5.8509857920        8.0580813932       -7.7531007511
 H        -3.2669686527        9.6949112433      -10.0939185167
 H        -3.9291398573        8.1551031684      -10.0306378139
 H        -3.7567156931        9.1915703654       -8.5309922812
 H        -6.7852522844       12.1482858093       -9.7383093965
 H        -6.2559956796       13.0542341987       -8.3221632607
 H        -7.6469273138       11.8490863949       -8.0988748880
 H        -3.2288627383       11.2594870529       -8.5003455133
 H        -4.0454887266       12.0680731778       -7.4554050328
 H        -4.1947686439       12.7692037371       -9.1083658077
 H        -7.5857015823        9.5167142641       -3.4660403804
 H        -7.6749311606        8.6463061887       -1.8543282874
 H        -8.9125872310        8.3846417088       -3.1101131574
 H        -4.9904508030        7.0532860323       -3.1054124184
 H        -5.7685024084        7.6288720710       -1.7420125958
 H        -5.1059053805        8.5991936208       -2.9381879638
 H        -7.3241003856        0.9132394318       -4.0257751888
 H        -9.0512871471        0.4791959826       -4.2072381960
 H        -8.2795591694        0.0749647260       -2.8332566213
 H       -10.3101810709        2.4132553730       -4.5961148650
 H        -9.7504943881        4.0053183425       -3.8479188378
 H       -10.9002085185        3.0045176457       -3.0399624892
 H        -8.0793010343        3.4203398094        3.6678334594
 H        -8.4906134694        2.4919064224        5.1141317881
 H        -9.7916020976        3.1784537368        4.0578380618
 H        -6.8799035948        1.3811141778        2.4556787508
 H        -7.6608291393       -0.2564844619        2.3969271176
 H        -7.2174140815        0.2974357919        3.8907535122
 H       -12.7027473072        2.1116408610        8.4407705911
 H       -14.0117127914        1.2067405624        8.8449432702
 H       -14.0452384308        1.8914383137        7.2981486309
 H       -11.7602811303       -1.4978065798        8.6387484248
 H       -13.4492046175       -1.2807619388        9.0241851365
 H       -12.2227645249       -0.1380935567        9.4563231438
 H       -16.4636986555        1.6405155137        1.1347566548
 H       -15.1606491194        2.3365552540        2.2194594157
 H       -16.6554567471        2.3095890571        2.8704712195
 H       -17.9653020119       -0.3476057639        2.8494126398
 H       -16.9707863427       -1.6276822304        2.5696949075
 H       -17.4643112059       -0.5258040731        1.3176365557
 Na      -12.7696757962        1.1088365248        3.8091500841
