117

 C       -15.0438989534       -0.9656644553        0.5365983041
 C       -14.7368722459       -0.4032415199        1.9383590684
 O       -13.7396256088       -0.2755707232        2.6514745039
 C       -16.0429057697        0.3053593761        2.6500416137
 C       -15.6178812396        0.5382362200        4.1932255571
 O       -14.7441766331        1.2865900173        4.5247971336
 C       -16.3215858215       -0.4825273742        5.3194810492
 C       -15.4283761482       -0.5161380930        6.6169903447
 C       -13.8780031542       -0.6395557790        6.5212127460
 O       -13.4624546506       -1.3344514347        5.6465558564
 C       -12.9152183453        0.1301115991        7.5296081417
 C       -11.5668185397        0.4862994005        6.5894914665
 O       -11.4376342980        1.6177143327        6.0819236096
 C       -10.5909476381       -0.6263981303        6.2989557092
 C        -9.4004502413       -0.1427994854        5.4631567594
 C        -9.8633443404        0.3943177105        4.1118560368
 O       -10.8631813917       -0.0983929021        3.6790165461
 C        -9.0412182939        1.4230655744        3.2892193714
 C        -9.7928733962        1.8776435902        1.9997088917
 O       -11.0218275264        1.6773245735        1.8281000962
 C        -9.3070027798        3.0394085068        0.9320499819
 C        -9.8631170154        3.0124401512       -0.5013296483
 C        -9.0693852841        1.8194203299       -1.2563119510
 O        -8.8286979297        0.7832942542       -0.7208239446
 C        -8.8220295120        2.0564532528       -2.8156395490
 C        -7.6807200092        3.1069300496       -2.7234839992
 O        -7.1405770353        3.2976096175       -1.6392444706
 C        -6.8873717397        3.6664842965       -3.9460104893
 C        -6.2124553887        4.9341129963       -3.4853345875
 C        -7.2643690646        5.9997775715       -3.4045968008
 O        -8.4133441913        5.4867605646       -3.4033411819
 C        -6.7976979510        7.5778819779       -3.6143899098
 C        -6.6221096681        7.4194598671       -5.2551481561
 O        -5.9130125336        6.5995795954       -5.6983294829
 C        -7.4236637368        8.3530880157       -6.1657570698
 C        -6.5010344066        8.8694279904       -7.3894692802
 C        -5.7460342980       10.2376332248       -7.1612729912
 O        -5.2850353334       10.5914238066       -6.1226529319
 C        -5.3966399376       11.0719858237       -8.5497269983
 C        -5.3192673728       10.0118812658       -9.6788130374
 O        -6.0089273666        9.9095793605      -10.6940394141
 C        -4.0461176304        9.1023888609       -9.5918107400
 C        -6.6522981901       11.9375929221       -8.7839877726
 C        -4.1782641246       11.8852374271       -8.5042884824
 C        -7.8481413596        8.6854095687       -3.2209854685
 C        -5.4717917408        7.7024087874       -2.8689958500
 C        -8.3410336754        0.9556645017       -3.7552136451
 C        -9.9830422778        2.8394264879       -3.5594194770
 C        -9.0439616518        2.6511027896        4.0453954763
 C        -7.6667086205        0.7089143974        2.9114829338
 C       -13.5449323284        1.4024637147        8.0789570302
 C       -12.4260990111       -0.8719767044        8.6117704303
 C       -16.0659385459        1.8074380672        2.0911256376
 C       -17.3563899429       -0.4258451361        2.3611157004
 H       -14.0952268900       -1.2004246073       -0.0160894184
 H       -15.6143407983       -0.1984912138       -0.0690253434
 H       -15.8389048199       -1.7992399880        0.7464998171
 H       -16.2885819583       -1.4043739091        4.8179428092
 H       -17.3301217448       -0.1104206805        5.6506239693
 H       -15.6657331638       -1.3990567544        7.1493863053
 H       -15.7715751668        0.3041340467        7.2177796597
 H       -11.1973269503       -1.2843969166        5.6751684669
 H       -10.2282267501       -1.2414737021        7.0478354817
 H        -8.7953768927       -0.9636969778        4.9884917015
 H        -8.6259901640        0.4462159801        6.0749104455
 H        -8.2489653383        3.3047510023        0.8371244040
 H        -9.7169037286        3.8276182175        1.4761784679
 H        -9.8648179663        3.9947922920       -1.0713186943
 H       -10.8429704390        2.7525574210       -0.3180153132
 H        -7.5408001094        3.7935143483       -4.8843012278
 H        -6.2259085658        2.8493469064       -4.0196685748
 H        -5.4242786561        5.1406511519       -4.1500787021
 H        -5.7957959839        4.8052977209       -2.4805255169
 H        -8.1185995918        9.0579136892       -5.6522586085
 H        -8.2092194571        7.7011469325       -6.6509538965
 H        -6.9181418011        8.8740094953       -8.4456830957
 H        -5.7749200280        8.0762015577       -7.5317513892
 H        -3.0061800495        9.6438095765       -9.4823686097
 H        -3.9181995379        8.4642024048      -10.4907741641
 H        -4.0777695842        8.4988645105       -8.7276196915
 H        -6.7732768967       12.1538455820       -9.8653579254
 H        -6.5121114813       12.7566518285       -8.1858984642
 H        -7.4784538988       11.3773843125       -8.2817240345
 H        -3.3052091721       11.3046364452       -8.3130651195
 H        -4.2465193937       12.5561800993       -7.6154685003
 H        -4.1660038693       12.5285274422       -9.4548853671
 H        -7.6870098792        9.6389282661       -3.8397294847
 H        -7.7231637695        8.9476728679       -2.1320818061
 H        -8.8580321836        8.3539970401       -3.3648484021
 H        -4.4985640060        7.6188640086       -3.4163447359
 H        -5.4187133646        7.0832391354       -1.9405969977
 H        -5.2840785257        8.6465115296       -2.4240098784
 H        -7.3793779636        1.2817590675       -4.1395126465
 H        -9.1453138545        0.6966359242       -4.5269652560
 H        -8.1977120198        0.0246506753       -3.1787817921
 H       -10.1954480621        2.2536308053       -4.4766486138
 H        -9.7883081829        3.8962040554       -3.7376674874
 H       -10.9642679617        2.8560387681       -2.9680721322
 H        -8.1093838458        3.2376082114        3.8229255705
 H        -8.8349899877        2.3040944107        5.0818782041
 H        -9.9337207321        3.2171728597        3.8584657349
 H        -6.9756396712        1.3424677965        2.4669989852
 H        -7.9406559476       -0.1105621424        2.3632674218
 H        -7.2252323813        0.2414041922        3.8040073863
 H       -12.8531330925        2.1537216715        8.3938346787
 H       -14.1481864291        1.3263062345        8.9912045106
 H       -14.2052934590        1.8446212918        7.3196822218
 H       -11.4510733289       -1.3368783959        8.4951329294
 H       -13.0711406187       -1.6478584948        8.7640013810
 H       -12.3336564421       -0.2459297453        9.5150291729
 H       -16.5562597034        1.8021174792        1.1615462137
 H       -15.0607966388        2.1398629995        2.0517003927
 H       -16.3856474999        2.5260508992        2.9077797859
 H       -18.3202875634       -0.0041984924        2.7277239084
 H       -17.4514828398       -1.3871917728        2.7270782631
 H       -17.5836052367       -0.5216500838        1.3253321031
 Na      -12.6055135850        1.1223688177        3.8627516848
