117

 C       -15.9298191705       -1.2153442098        1.1515165574
 C       -15.2247719559       -0.2460034698        2.2451633805
 O       -14.0270257882       -0.1721639272        2.3542092779
 C       -16.2112027934        0.7597810273        3.1243630638
 C       -15.6643851373        0.6474915795        4.5309063682
 O       -14.7000229690        1.2986329625        4.8214235526
 C       -16.2404124365       -0.5159413727        5.4398468848
 C       -15.5861246109       -0.4233728032        6.8856799152
 C       -14.0915824342       -0.6902705557        6.6545399728
 O       -13.7433778192       -1.5453006103        5.9261821174
 C       -13.0818154907        0.0486227127        7.6359413054
 C       -11.9525103479        0.3644847254        6.5099728266
 O       -12.1007297630        1.4191448247        5.8623191850
 C       -10.8230617889       -0.6046794217        6.2883869728
 C        -9.6451051797        0.1501768429        5.4972556607
 C        -9.7998178456        0.4075352779        4.0067728350
 O       -10.5537861107       -0.1843767328        3.2583807694
 C        -9.1179735689        1.6148943685        3.3562873625
 C        -9.9267010034        2.1497409898        2.1641897893
 O       -11.2035913892        2.1922478434        2.0731387390
 C        -9.1623418938        3.0546513222        1.1029190782
 C        -9.7831584564        2.9162590464       -0.3738743192
 C        -8.9198171554        1.8694154510       -1.0826140266
 O        -8.4494193284        0.9041576719       -0.4972285537
 C        -8.6890895263        2.1441931994       -2.6023712285
 C        -7.2849295147        3.0394731164       -2.5720294986
 O        -7.0360923758        3.6398556788       -1.5663182812
 C        -6.4950734337        3.1970450539       -3.9824531652
 C        -5.7473108531        4.5536287712       -4.1322197063
 C        -6.7215534821        5.6111035870       -3.7710110998
 O        -7.8673383880        5.3389580297       -3.4039065378
 C        -6.3367762405        7.1958539974       -4.1365811957
 C        -6.3393355852        7.3514363672       -5.5585893539
 O        -5.3986278401        6.9798785178       -6.1699293283
 C        -7.3629824303        8.3270434973       -6.2815278998
 C        -6.8176377228        8.7774839946       -7.7547647910
 C        -5.8886911273       10.0067490820       -7.5468642216
 O        -5.4896814130       10.2703784763       -6.4535414768
 C        -5.4320812576       10.8411258985       -8.8130293718
 C        -5.0930419064        9.9107737443       -9.8328717854
 O        -5.9190039983        9.5490114459      -10.6277802441
 C        -3.6914404121        9.1640437599       -9.6631692760
 C        -6.7134427596       11.7538841415       -9.0793928345
 C        -4.1773176105       11.7958610073       -8.3949667475
 C        -7.4247806988        8.1382494018       -3.5425183182
 C        -5.0086617342        7.5767370293       -3.4160440095
 C        -8.5518849564        0.6894533688       -3.3603562032
 C        -9.7134855150        3.0066142581       -3.3538823631
 C        -9.2220161601        2.9224443776        4.3086766904
 C        -7.7026834598        0.9993131523        3.0106349450
 C       -13.7177829265        1.3904064089        8.1771554554
 C       -12.8341476744       -0.9498567525        8.7631432596
 C       -16.0434376484        2.2194520967        2.6246700286
 C       -17.5237338411        0.1628960630        2.9658732276
 H       -15.2597287358       -1.8735368563        0.3883038379
 H       -16.7020403042       -0.6068599666        0.5444208764
 H       -16.5249709068       -1.9330566967        1.7447445263
 H       -15.8235292618       -1.4354661153        4.9150022386
 H       -17.3483982486       -0.5032027447        5.4569800907
 H       -16.1067430641       -1.1541304006        7.5255273654
 H       -15.7569287122        0.5162038440        7.4048404091
 H       -11.0201913263       -1.5831090250        5.8388596112
 H       -10.3498650626       -0.8176687082        7.2162600613
 H        -8.6745820963       -0.2987361751        5.8426394688
 H        -9.5415837592        1.2343467286        5.8573559754
 H        -8.1190862061        2.7768987711        0.9911346455
 H        -9.0300403293        4.0254205654        1.3387782424
 H        -9.8670120899        3.9535648329       -0.8563052472
 H       -10.6972354396        2.4273847053       -0.3612533940
 H        -7.4016734996        3.1508614272       -4.6621698716
 H        -5.8436473328        2.3682100366       -4.1385903826
 H        -5.3820805218        4.6915579973       -5.1494178083
 H        -4.7738298423        4.6007715973       -3.5408231332
 H        -7.6929296925        9.2306788602       -5.7103721704
 H        -8.3009495662        7.7015917119       -6.2965435000
 H        -7.4682241433        8.9726741300       -8.6306006467
 H        -6.0924407523        8.0500462228       -8.1745962374
 H        -3.6748049718        8.7800019521       -8.6188676171
 H        -2.7703702212        9.7530231747       -9.7317426791
 H        -3.5447946484        8.3356359998      -10.2918556094
 H        -6.3845020032       12.5770260292       -9.7640973270
 H        -7.2191956848       11.8997597460       -8.1801611382
 H        -7.3856456784       11.1742502053       -9.7225754985
 H        -3.5605480952       11.3844948494       -7.5804450916
 H        -4.7977244818       12.7807667813       -8.2255593038
 H        -3.5862096047       12.0705479577       -9.1812857270
 H        -7.1329105711        9.1941786607       -3.7675602467
 H        -7.4420275766        7.9608402911       -2.4977949736
 H        -8.3424163541        7.9205268962       -4.1652782279
 H        -5.0113966382        8.5693685854       -3.0759922828
 H        -4.1636401013        7.5060742440       -4.0637373872
 H        -4.7809422321        6.9536633462       -2.6418894662
 H        -8.8009952467        0.7367123564       -4.3569900179
 H        -9.1612649719       -0.1046948485       -2.9095936553
 H        -7.5300840850        0.4923724056       -3.2515386918
 H        -9.2390538694        3.4269393674       -4.2582840736
 H       -10.1823513324        3.7109520324       -2.7331013120
 H       -10.5061915972        2.2961147194       -3.6203806990
 H        -9.2666209294        3.8103902613        3.6907756302
 H        -8.3076884659        3.0650285232        4.8878692994
 H       -10.1271926427        2.9086817535        4.9101368819
 H        -6.8834475948        1.6836689882        3.2033440217
 H        -7.8252659843        0.7750913938        1.9542796353
 H        -7.4137813542        0.0866424192        3.5460798496
 H       -13.0314028523        1.9433822113        8.7187722174
 H       -14.6139907236        1.2092906201        8.8179573357
 H       -14.1195670922        2.0579376900        7.4071976180
 H       -12.5699962838       -1.8829728195        8.2587324941
 H       -13.6598146294       -1.1267486240        9.3163087804
 H       -12.0056113357       -0.6727569273        9.3710054205
 H       -16.0266321561        2.2107746616        1.5368083587
 H       -15.1630744181        2.6630251575        3.0952106536
 H       -16.9704038861        2.7921959815        2.9163818161
 H       -18.2868631138        0.3547610316        3.7395939750
 H       -17.6313443167       -0.8662429827        2.9479880856
 H       -18.0041891886        0.4720413566        2.0835946037
 Na      -12.8322083897        1.4655128176        3.3906765981
