117

 C       -16.0066748821       -1.2561907833        1.3411571389
 C       -15.3529107025       -0.1432483692        2.1537309122
 O       -14.0974345297       -0.1418545511        2.1444306747
 C       -16.2349129774        0.7287792872        3.0165542465
 C       -15.6163237913        0.6254918610        4.6136269298
 O       -14.6549225065        1.2183136758        5.0189357674
 C       -16.2784688216       -0.3698116863        5.5478965801
 C       -15.7253301948       -0.5135728911        6.9691040988
 C       -14.2323150199       -0.7310929974        6.8204733100
 O       -13.7967808367       -1.5620952761        6.0307019885
 C       -13.1412711621        0.0845276435        7.5582690382
 C       -12.0437176346        0.4156090469        6.4925650681
 O       -12.1563913115        1.3601753923        5.6725894307
 C       -10.9638034827       -0.5781971830        6.2953910096
 C        -9.6858615622        0.0918944650        5.6425151826
 C       -10.0343511796        0.4451168974        4.1191207369
 O       -10.6753142879       -0.3346783580        3.4534451545
 C        -9.1202183868        1.6429798265        3.3880863940
 C        -9.8913351766        2.3017192734        2.2416199119
 O       -11.1060158385        2.3485640295        2.3515619274
 C        -9.3188079921        3.2051156214        1.2202966367
 C        -9.8922214512        2.8812896268       -0.1957922184
 C        -9.0656351216        1.8787656968       -1.1146078612
 O        -8.4663436844        0.9892602772       -0.5384738529
 C        -8.5250654259        2.1660141664       -2.5994315395
 C        -7.2210176752        3.0174428083       -2.6631317116
 O        -6.7728936087        3.5454462721       -1.7083834420
 C        -6.5743962039        3.0148395313       -3.9935091747
 C        -5.7408571624        4.3584350159       -4.1748251499
 C        -6.6371924672        5.6434997611       -3.8463403638
 O        -7.7685257916        5.4016938248       -3.5538008737
 C        -6.2473358657        7.1247622733       -3.9488409414
 C        -6.2487063060        7.4489170779       -5.7784166769
 O        -5.3431338401        7.0371771039       -6.3738796854
 C        -7.5090760397        8.1882630399       -6.5233371365
 C        -6.9369763942        8.7581686835       -7.8435058587
 C        -5.9505969030        9.9636616848       -7.6082062639
 O        -5.4558442736       10.1798685864       -6.5002865482
 C        -5.5190316023       10.8717398840       -8.8098683559
 C        -5.0584397712        9.8269053428       -9.9006059635
 O        -5.7850310380        9.4106664886      -10.7714757718
 C        -3.6369730411        9.3148546628       -9.6887397283
 C        -6.6592191484       11.8072374123       -9.2728240440
 C        -4.2029983149       11.7417633061       -8.3539072022
 C        -7.3837717309        8.0338427927       -3.3478534019
 C        -4.8718537345        7.3469812138       -3.3252829312
 C        -8.2712713041        0.7758447962       -3.3974061823
 C        -9.5091784250        3.0454339378       -3.3829397952
 C        -9.0694480247        2.9340257076        4.4480500319
 C        -7.7029172541        1.2142767594        3.0984267778
 C       -13.6794393329        1.3430575878        8.2022461757
 C       -12.5284871527       -0.8840547539        8.6224598597
 C       -16.1240297486        2.3043252689        2.6719712353
 C       -17.7546307124        0.4085265047        2.9252175073
 H       -15.2074552488       -1.6790063010        0.7516360212
 H       -16.8892437422       -0.9900195733        0.6156587609
 H       -16.3443590916       -2.1150436753        1.9889936002
 H       -16.1543120341       -1.3218207483        4.9303862017
 H       -17.2657940676       -0.1151563491        5.5846798331
 H       -16.2666395985       -1.2889193964        7.4743859730
 H       -15.9434330347        0.3340604525        7.4997207142
 H       -11.2553360500       -1.2875669191        5.5522663009
 H       -10.6047015631       -1.1208501252        7.1618459591
 H        -8.8032464582       -0.6422283169        5.6412277664
 H        -9.2878905308        0.9934911744        6.1508312226
 H        -8.2229421616        3.2418140057        1.0990028907
 H        -9.4328223411        4.3195248389        1.3284043692
 H        -9.8318015815        3.8484265181       -0.6256390666
 H       -10.9006839302        2.5036067206       -0.1389258343
 H        -7.3302608735        2.8356107085       -4.7052958979
 H        -5.8643531561        2.1356054829       -3.9831136950
 H        -5.2790307318        4.3324511977       -5.1360898551
 H        -4.8758089943        4.3170743373       -3.5362302662
 H        -7.8455230748        9.0611797508       -5.9313737498
 H        -8.4802505981        7.6156158120       -6.6552998773
 H        -7.6690203581        9.1690417614       -8.5086596079
 H        -6.3352023427        8.0863754770       -8.5260850064
 H        -3.5707587470        8.6690434421       -8.8360424087
 H        -2.9258199498       10.1172373796       -9.4355142446
 H        -3.1176044824        8.7686373165      -10.5927729757
 H        -6.3363167285       12.4960437896      -10.0309204062
 H        -7.0994405744       12.1697092199       -8.3108313126
 H        -7.3834436398       11.2441033470       -9.7177289562
 H        -3.3854795665       11.0760181583       -8.0151055083
 H        -4.3778900467       12.7410703895       -7.8822555379
 H        -3.8847871548       12.0262826400       -9.3382718698
 H        -7.1868882106        8.9290499915       -3.9281261222
 H        -7.2748651641        8.2448620822       -2.3026380703
 H        -8.3589650650        7.6543731358       -3.8090856084
 H        -4.6808035919        8.2971276544       -2.8431077013
 H        -4.1230207871        7.2876536415       -4.1172008735
 H        -4.5462366203        6.5176355052       -2.6270280345
 H        -8.6682536466        0.8513277367       -4.4276080960
 H        -8.8044211923       -0.0580688046       -2.9668331254
 H        -7.1555215395        0.6279268090       -3.3470581756
 H        -9.0388733590        3.4045100726       -4.3107389912
 H        -9.7793627643        3.8691449015       -2.6751870423
 H       -10.4209768996        2.4720923701       -3.5558864971
 H        -8.9298978464        3.8526260525        3.9054204152
 H        -8.3243618315        2.9633053691        5.2661388995
 H       -10.1485174757        2.9329655997        4.8363684715
 H        -7.0996196393        2.0259825417        3.4778221490
 H        -7.6202291529        1.2582958667        2.0089976989
 H        -7.3580006670        0.3545186443        3.4910345531
 H       -12.8692497427        2.0039255000        8.4473693793
 H       -14.2895398492        1.0865901608        9.0828816089
 H       -14.3673026455        1.9366450342        7.6309292654
 H       -12.5828986901       -1.8557852850        8.1930655895
 H       -13.0809759385       -0.8893019462        9.6455629147
 H       -11.5188348358       -0.7078132757        8.8040413777
 H       -16.3997478256        2.5137525127        1.5979525076
 H       -15.2061770925        2.8184686437        3.0293558342
 H       -16.9775857302        2.6294965058        3.1635296689
 H       -18.3227484070        0.9366545992        3.6392818409
 H       -18.1439826456       -0.5965821441        3.1022028344
 H       -18.2102150734        0.6483972363        2.0047000674
 Na      -12.9250531875        1.3898541990        3.3696014820
