117

 C       -16.1217135632       -1.3615269888        1.4892051226
 C       -15.4026534825       -0.1360727504        2.1083298627
 O       -14.2251688635        0.0751734389        1.9667727765
 C       -16.3367819721        0.8292333956        3.2437564256
 C       -15.7506844222        0.5330171287        4.5603092742
 O       -14.7677608990        1.1652892569        4.9713302494
 C       -16.5802732439       -0.3621058845        5.5920700986
 C       -15.8611750060       -0.5001128816        6.8845380521
 C       -14.2911754205       -0.7819427722        6.8273809601
 O       -13.9358112674       -1.7287003833        6.1062807391
 C       -13.0677156915        0.0935383244        7.5644370575
 C       -12.1084238990        0.4112817817        6.3748230509
 O       -12.2473769417        1.3684122243        5.6771394801
 C       -10.9795286224       -0.6069848238        6.1442630841
 C        -9.6866166808        0.0263622931        5.5872303848
 C        -9.9584983674        0.4518408125        4.1886093468
 O       -10.8111830134       -0.2188198179        3.6386819290
 C        -9.1973758144        1.8013548038        3.5829729673
 C       -10.0812933149        2.4553463905        2.3761495158
 O       -11.2484095279        2.4829686042        2.5149713652
 C        -9.3762935057        3.1847231096        1.1635057600
 C        -9.8346008709        2.9270905710       -0.2938561437
 C        -8.7963390778        1.9769165446       -1.0428519129
 O        -8.5499390205        0.9336234031       -0.4692402003
 C        -8.4835762126        2.2356171488       -2.5560060017
 C        -7.0821322026        2.9784621762       -2.6685603999
 O        -6.4927119241        3.4173853703       -1.6708704170
 C        -6.3502322298        3.0418875853       -4.1339559192
 C        -5.7313081094        4.4318712938       -4.1869817275
 C        -6.7823077456        5.5825645744       -4.0846331906
 O        -7.9146987209        5.3680997404       -3.6751465835
 C        -6.2118221350        7.1098253069       -4.2750741062
 C        -6.1397197239        7.5636434859       -5.7247326370
 O        -5.2512673343        7.0376014979       -6.5220902405
 C        -7.2971071904        8.0467605465       -6.5418823785
 C        -7.0234392639        8.8271515836       -7.7565509091
 C        -5.9343965436        9.9346842145       -7.5971757385
 O        -5.5050856578       10.0153381632       -6.4627513540
 C        -5.5100141595       10.8713609735       -8.8677584406
 C        -4.9127099344        9.8037428652       -9.9911552912
 O        -5.6566533028        9.3290617029      -10.8589301636
 C        -3.5507408256        9.2872995285       -9.9076050334
 C        -6.5858568293       11.7635007641       -9.4840224784
 C        -4.4522921539       11.7349000945       -8.2731130381
 C        -7.1937830755        7.8738183585       -3.1905924101
 C        -4.7712114236        7.1695494886       -3.5238843600
 C        -8.1438359930        0.9445028858       -3.2443927742
 C        -9.6896344028        3.0624917774       -3.4607721478
 C        -8.9697576709        2.7910603185        4.6863507291
 C        -7.6798387420        1.4044030586        3.1614474600
 C       -13.5926843737        1.4237661932        8.3064454685
 C       -12.2889465870       -0.7566744383        8.6439467011
 C       -16.0540379645        2.3088019410        2.7267879574
 C       -17.8104222683        0.6348313911        3.0468336401
 H       -15.4428086232       -1.7407998375        0.7984673440
 H       -16.9761186907       -1.0929921378        1.0161070901
 H       -16.2828143942       -2.2291639174        2.1652002104
 H       -16.7053068984       -1.2382271147        5.0561291759
 H       -17.5729490267        0.1268410022        5.6827491418
 H       -16.1435363455       -1.3691507518        7.4296393948
 H       -16.2062651048        0.3309068056        7.5347451947
 H       -11.2666885101       -1.3643332016        5.4080407159
 H       -10.5646714073       -1.0992333868        7.0764241544
 H        -8.8425702480       -0.6690896537        5.5006952041
 H        -9.3298311456        0.7836603008        6.2314569206
 H        -8.2691701076        3.3108715956        1.1511849088
 H        -9.5483287636        4.3607491471        1.2219330051
 H       -10.0463025143        3.8648113241       -0.6974504065
 H       -10.7263347889        2.2039332169       -0.1977609780
 H        -7.0438199545        2.8797642115       -4.9308686468
 H        -5.5441374488        2.2665149339       -4.1666417187
 H        -5.1407059249        4.4801378775       -5.1011364137
 H        -4.9996758043        4.5553783658       -3.4672666566
 H        -8.1098884079        8.4232470539       -5.9453907317
 H        -7.7552778987        7.1999496807       -7.0325511118
 H        -7.9727743048        9.2126160175       -8.1469313169
 H        -6.5877260655        8.2451152575       -8.5781417067
 H        -3.4130429540        8.5307665514       -9.0963305485
 H        -2.7861938619       10.0592665209       -9.6642744001
 H        -3.2196118998        8.8439290636      -10.8591694514
 H        -6.2363572723       12.2045276656      -10.3546948718
 H        -6.8569158734       12.4169392347       -8.6408403701
 H        -7.4849913583       11.1922666990       -9.7806563360
 H        -3.6417135598       11.0201875777       -8.1311103584
 H        -4.7952975335       12.3365131218       -7.5540800484
 H        -4.0584500841       12.4932904527       -9.1428896190
 H        -7.2307424059        8.9109302399       -3.4314880831
 H        -6.6074339836        7.7681193822       -2.2369573032
 H        -8.1133395928        7.4368171228       -3.2585407235
 H        -4.5869871970        8.2078067050       -3.0738761764
 H        -3.8182495046        6.9776354957       -4.1011983410
 H        -4.7244465283        6.4281939051       -2.6322856490
 H        -8.4308443234        1.0039050885       -4.3752934333
 H        -8.8428989673        0.1804475512       -2.8749460200
 H        -7.0713112556        0.6920375455       -3.0042231588
 H        -9.2610169276        3.0219821404       -4.4463481342
 H        -9.6154521175        4.1154328947       -3.0687829793
 H       -10.7240897704        2.6855620790       -3.3729516595
 H        -8.2615171177        3.5472343980        4.2462793073
 H        -8.5122658033        2.4214047547        5.6443618087
 H        -9.9387476926        3.2659418777        4.9571005708
 H        -6.9229896169        2.1185765956        3.4367525692
 H        -7.6689174719        1.3165855385        2.0995906709
 H        -7.4618578930        0.4461203112        3.6691180174
 H       -12.7435635496        2.1867978507        8.4220139835
 H       -14.1268568556        1.2204384468        9.1889694192
 H       -14.3123311530        1.9654273792        7.7172837881
 H       -12.1097886459       -1.7963153024        8.3394104864
 H       -12.8945544345       -0.7192207233        9.6057732339
 H       -11.2826601577       -0.3094320824        8.9019121167
 H       -16.5986661212        2.3678415824        1.7905987089
 H       -14.9781014723        2.5105454260        2.6120651005
 H       -16.6450969264        2.9970252870        3.3316241758
 H       -18.4788618710        1.3433473639        3.4608118314
 H       -18.2119092229       -0.3018215980        3.4601711710
 H       -18.1476517969        0.5565428960        2.0012618791
 Na      -12.8933246278        1.2747583532        3.3965820821
