117

 C       -16.2448715736       -1.3496502784        1.6922482797
 C       -15.5733931713       -0.1243724022        2.1819126751
 O       -14.5068166705        0.3240132918        1.8785040424
 C       -16.4235607967        0.8467555826        3.0697584699
 C       -15.9682135616        0.6764729092        4.5734912690
 O       -14.8469454762        0.9770554515        4.9294009813
 C       -16.6983431656       -0.3130832791        5.7163329864
 C       -15.8007137142       -0.4133645809        6.9808327326
 C       -14.3034788660       -0.8456053609        6.8480994805
 O       -14.0272861747       -1.8373466172        6.2563560689
 C       -13.1304388720        0.0426959113        7.5380859480
 C       -12.1112848991        0.3705195317        6.3930270202
 O       -12.2777265151        1.3862769320        5.7723228488
 C       -10.9323936367       -0.6772587360        6.0901686871
 C        -9.6578135713       -0.0896041785        5.6227996773
 C        -9.9125613561        0.5722190780        4.1640752311
 O       -10.8481817192        0.2277208025        3.4400137167
 C        -9.2420920088        1.8703465885        3.7276100091
 C       -10.1389944663        2.5538408866        2.4614278923
 O       -11.3952592654        2.6873954843        2.5270558576
 C        -9.3845274797        3.1921743729        1.3244404906
 C        -9.8475336931        3.0093317465       -0.2718974246
 C        -8.8631784562        1.9756858472       -1.0101294292
 O        -8.4495810540        0.9634935001       -0.5541815748
 C        -8.3342060541        2.3144967442       -2.5652253848
 C        -6.9841431272        3.0719312638       -2.6638457853
 O        -6.2597271972        3.2291663746       -1.6825422192
 C        -6.2652284941        3.2415779528       -4.0731004849
 C        -5.7210765722        4.5678121325       -4.3442420416
 C        -6.7270569205        5.6097500431       -4.2131257388
 O        -7.9248480843        5.3248540261       -4.0035291675
 C        -6.2034154386        6.9568124496       -4.2595952070
 C        -6.0888004621        7.2709919072       -5.8559190284
 O        -4.9577749443        7.0624518820       -6.3684087083
 C        -7.4104352627        7.9129521003       -6.5091592878
 C        -7.3069290394        8.8178960154       -7.8367696905
 C        -6.0102420587        9.8774965112       -7.5851670439
 O        -5.4249211603       10.0533388040       -6.5704976286
 C        -5.4063801851       10.6849001574       -8.8128039480
 C        -4.8448060151        9.6995871932       -9.9980347319
 O        -5.6590361352        9.4166127572      -10.8492613243
 C        -3.3519548767        9.2928928557      -10.0606119477
 C        -6.5977651783       11.4986191131       -9.6119848125
 C        -4.4649897192       11.8152495574       -8.1988921457
 C        -6.9399691297        7.8987071995       -3.2689560797
 C        -4.7188852605        7.0231698684       -3.8939727763
 C        -8.1650425130        0.8742514484       -3.1300470322
 C        -9.6041888954        2.8981832363       -3.2154051089
 C        -9.0369493702        2.8379435449        4.9131050301
 C        -7.7880371405        1.3602714841        3.0668602890
 C       -13.5066712472        1.3694705696        8.1914380023
 C       -12.3820431494       -0.6378399590        8.7201449566
 C       -15.8777681294        2.3157382570        2.7482204810
 C       -17.8867299931        0.6779818082        3.0652414744
 H       -15.6940711699       -1.7936390889        0.8593190585
 H       -17.1773779718       -1.0107389719        1.3584919868
 H       -16.2821961674       -2.1498333976        2.3265307231
 H       -16.7675197665       -1.1892247892        5.1186244939
 H       -17.7652867802        0.0750511567        5.9054076456
 H       -16.0629537630       -1.1959053058        7.7538513512
 H       -16.0017297170        0.5690224842        7.5546611147
 H       -11.3206026043       -1.2963101738        5.1983783520
 H       -10.6619253137       -1.3008978876        6.9580470305
 H        -8.8242952282       -0.6765941379        5.4740253039
 H        -9.3850963615        0.6450727523        6.3512884100
 H        -8.2934973524        3.0901664101        1.3750499829
 H        -9.3876892493        4.2591901473        1.4526668097
 H        -9.7318900261        4.0735507879       -0.6953951552
 H       -10.8823495542        2.6194110804       -0.1843550941
 H        -6.9324573206        2.8977770157       -4.9411094597
 H        -5.4662702644        2.5641338379       -3.9872185793
 H        -5.1062995002        4.5491610973       -5.2581907139
 H        -4.9691623244        4.8488903090       -3.5894344637
 H        -7.7670672502        8.4842531262       -5.6700541097
 H        -8.2061628449        7.2652131043       -6.7484829537
 H        -8.2947191295        9.3676190340       -8.0054869064
 H        -7.0158479249        8.3469677562       -8.7341469904
 H        -3.0680194215        8.5601123174       -9.2527977928
 H        -2.5521678269       10.0194220058       -9.9947584292
 H        -3.2198822444        8.8273830610      -10.9509225227
 H        -6.0826221582       11.6880190612      -10.6111174532
 H        -6.8359627727       12.3770989967       -9.1001707706
 H        -7.5348330632       10.9143915446       -9.9174071655
 H        -3.5430423209       11.4263920110       -7.8270643258
 H        -5.2608436980       12.1120717150       -7.4456828661
 H        -4.3015692585       12.7531330255       -8.7403439778
 H        -6.6040089662        8.9199598579       -3.3839888167
 H        -6.6042062734        7.5411370828       -2.3124977873
 H        -7.9529343309        7.7019306679       -3.4692769184
 H        -4.3009819616        8.0643128579       -4.0997849788
 H        -4.0380523166        6.3655012477       -4.5441653159
 H        -4.4378475082        6.7781262462       -2.8718247565
 H        -7.9950052176        0.7741781347       -4.1900556517
 H        -9.2106634000        0.4222078910       -2.9746851249
 H        -7.4467900078        0.4076273912       -2.4523371971
 H        -9.5452150773        2.5630036162       -4.2526618164
 H        -9.6679943188        3.9631921372       -3.1341115003
 H       -10.4500567225        2.3938286771       -2.6961248963
 H        -8.1919390978        3.5383671119        4.6312399928
 H        -8.7088495970        2.2354573406        5.7780376029
 H        -9.9166659749        3.3357886165        5.2460270841
 H        -7.0109239407        2.1422739454        2.8819230728
 H        -7.9309886732        0.8656768081        2.0951144068
 H        -7.4992426685        0.6519116637        3.9178086768
 H       -12.6227958045        1.9734917100        8.3388117137
 H       -14.1589047028        1.2915330955        9.0595140804
 H       -14.0717407200        1.9818118794        7.4539004821
 H       -11.8050306122       -1.6099731675        8.4962314501
 H       -13.0341508281       -0.7369633360        9.5040365205
 H       -11.5857192421        0.0985685108        9.1336034897
 H       -16.4593705751        2.8780924812        2.0820800678
 H       -14.8873705182        2.1080187938        2.4393544949
 H       -15.9867511978        2.9268185639        3.7092348358
 H       -18.4191427835        1.4767737610        3.6839002373
 H       -18.1304322166       -0.2081794914        3.6285531387
 H       -18.5936065455        0.5754515467        2.2283666019
 Na      -12.8267056503        1.1188604900        3.4746299485
