117

 C       -16.3481929334       -1.3346180105        1.8431812219
 C       -15.7818582714        0.0624612658        2.1755417896
 O       -14.6515057360        0.2172769754        1.7581041672
 C       -16.4974977770        0.9486386765        3.3399000725
 C       -15.8631199076        0.4758069739        4.6778776606
 O       -14.7705913510        0.9056593650        4.9024558384
 C       -16.5551630920       -0.2489889589        5.7872058067
 C       -15.7933557546       -0.2264462904        7.0797736180
 C       -14.3520910667       -0.8564227382        6.9242516089
 O       -14.0692006848       -1.9078766727        6.4012325805
 C       -13.1341718205        0.0774702622        7.5713241557
 C       -12.0895497707        0.2305109543        6.4437901696
 O       -12.1033282498        1.3343058940        5.8409180975
 C       -11.0749915251       -0.7320519676        5.9946441823
 C        -9.8232793356       -0.0856914672        5.3460581710
 C       -10.1239971667        0.8812716394        4.1406702415
 O       -10.8151767939        0.2774996988        3.3289196581
 C        -9.2407012541        2.0084638365        3.7141887923
 C       -10.0363646275        2.7076547925        2.4753977475
 O       -11.2945809535        2.7960304899        2.6041830075
 C        -9.2903596520        3.3046958170        1.3961504697
 C        -9.6962308511        3.0518945617       -0.1203845081
 C        -8.7006159726        2.0939971650       -0.8866174696
 O        -8.4136768329        1.0112936303       -0.3733652053
 C        -8.4173427933        2.1966928012       -2.4459587041
 C        -6.7981789639        2.8820373401       -2.6106427776
 O        -6.1730886048        3.1720544004       -1.6572954666
 C        -6.3375244938        2.9567483544       -4.0561531744
 C        -5.6917176153        4.3142101437       -4.3785250204
 C        -6.6661514072        5.5639052168       -4.2316844378
 O        -7.8452729773        5.3932470252       -4.3919795900
 C        -6.0284244896        7.0553835382       -4.3097966406
 C        -6.0492396220        7.3984175193       -5.9440904608
 O        -5.1056096719        7.1328422817       -6.5199499479
 C        -7.3386041658        7.9084959016       -6.4369462735
 C        -7.1342401351        8.7908371079       -7.7769892920
 C        -6.0230319691        9.7465108566       -7.7057883789
 O        -5.5450406609        9.9309011797       -6.5781506566
 C        -5.4330674950       10.6545462665       -8.8278692652
 C        -4.7979174898        9.7521474034       -9.9502773128
 O        -5.5209008279        9.3453268881      -10.8229194212
 C        -3.3297984519        9.3867237088      -10.0654652506
 C        -6.6781231040       11.2470443042       -9.6230324463
 C        -4.4599263209       11.7135903351       -8.3073135908
 C        -6.8156357149        8.1237790630       -3.5049460816
 C        -4.4594084411        7.0625749592       -4.0350809486
 C        -8.1437441169        0.7423052092       -3.0829266055
 C        -9.5568431380        2.9152902250       -3.1319279488
 C        -9.0431724552        3.0419126376        4.8803247926
 C        -8.0230049368        1.3453093255        3.1146980976
 C       -13.6207265190        1.4323745682        7.9510354390
 C       -12.5884496931       -0.7745374609        8.8334647284
 C       -15.9954061168        2.4616030576        2.8987910042
 C       -18.1116712297        0.8073166459        3.0336721708
 H       -15.6757624985       -1.9324355578        1.2367736844
 H       -17.4551842371       -1.5648403672        1.5160361846
 H       -16.0925819720       -1.8763795905        2.7425991682
 H       -16.8497803574       -1.3338095285        5.4121955591
 H       -17.4743805410        0.3404633559        5.7480659714
 H       -16.3144319253       -0.7259200955        7.9983269490
 H       -15.7343968493        0.8166751554        7.3726773067
 H       -11.6053883133       -1.3420520377        5.2128346824
 H       -10.7397980620       -1.2919126100        6.8495670177
 H        -9.2199869842       -0.7151583422        4.6965571153
 H        -9.1724183725        0.2916132339        6.1608079974
 H        -8.3078548303        2.9074296465        1.4137688518
 H        -9.0875859249        4.2799762584        1.5425273157
 H        -9.6948649604        4.1043942313       -0.5900873334
 H       -10.6467859092        2.5819997381       -0.0455637359
 H        -7.2820720314        2.9251803804       -4.6659056917
 H        -5.7671978434        2.0661829383       -4.2845647819
 H        -5.3297313938        4.3412014981       -5.4266720494
 H        -4.7059464426        4.5420910819       -3.8192955795
 H        -7.8146744439        8.4966732906       -5.6652689846
 H        -8.1069780979        7.2041059078       -6.7673956996
 H        -7.9149380781        9.5794013310       -7.6763037933
 H        -7.2389966517        8.2796524517       -8.7596358877
 H        -2.9308906373        8.8391772908       -9.2885467471
 H        -2.6207387190       10.1418039672      -10.2153368867
 H        -3.2987682954        8.7858533194      -11.0169545409
 H        -6.2790393574       11.5036056148      -10.6735388025
 H        -7.1585100181       12.1386840431       -9.1082849515
 H        -7.3831053716       10.4637271822       -9.8351276403
 H        -3.6328984453       11.2067511166       -7.7881908522
 H        -5.2297206129       12.2328043192       -7.5853004368
 H        -4.0992583674       12.4038612812       -8.9704853712
 H        -6.2619621357        9.0354391001       -3.3589825588
 H        -7.0292364640        7.6654522550       -2.5925062932
 H        -7.8156403914        8.1228409806       -4.0761158532
 H        -3.8977206769        7.8294871887       -4.5009288012
 H        -3.9925457427        6.1724001090       -4.3746806428
 H        -4.2366571788        7.0916288287       -2.9959727068
 H        -7.4948148772        0.9005858829       -3.8687590611
 H        -8.9759168134        0.2710951106       -3.5756210127
 H        -7.6582173370        0.1593860366       -2.3391110730
 H        -9.4634913739        2.6430120527       -4.1863675194
 H        -9.5707571032        3.9897834109       -3.0162782115
 H       -10.4189117791        2.4125397380       -2.7160083357
 H        -8.5672382862        3.9684266581        4.7246968202
 H        -8.5535989751        2.4594081869        5.6496532858
 H       -10.0253273928        3.1424675080        5.3546461914
 H        -7.5339355754        2.1458778128        2.4736509856
 H        -8.1734319183        0.4727412904        2.3960585646
 H        -7.4360638394        1.1288783332        3.9876380488
 H       -12.8853174098        2.0366206747        8.3546165757
 H       -14.5031499606        1.3845086246        8.6625793965
 H       -13.9623099189        1.9889817500        7.0499550128
 H       -12.1833792867       -1.7115244289        8.4797001023
 H       -13.3905572908       -0.8866478674        9.5823275806
 H       -11.8163465269       -0.3034640859        9.3728108641
 H       -16.7490867390        2.9303065202        2.2451576937
 H       -15.1315671917        2.1744848103        2.3372217122
 H       -15.8803032312        3.1686130705        3.6834101043
 H       -18.8383913977        1.4489815247        3.5979416678
 H       -18.5356574089       -0.2109960939        3.1246241320
 H       -18.4282500690        1.0509887219        2.0314968637
 Na      -12.8554998523        1.0163179785        3.5412410370
