117

 C       -16.7676778859       -0.9262659295        1.7920350459
 C       -16.0689620780        0.1700335347        2.4625156308
 O       -14.8999328922        0.3425466528        2.0579648474
 C       -16.7447845672        1.0719001565        3.5653411735
 C       -15.9208007015        0.5134283260        4.8724427633
 O       -14.7286508618        0.7125819780        4.9850841218
 C       -16.6212343832       -0.1092336787        6.1531277655
 C       -15.6891113857       -0.0222646460        7.3857261715
 C       -14.3507322211       -0.5766435342        7.0732814664
 O       -14.2251078726       -1.6147488802        6.4588761928
 C       -13.1251724398        0.2062995984        7.5994147597
 C       -12.2693366515        0.5704264243        6.2710657902
 O       -12.3355793624        1.6552093758        5.7212031407
 C       -11.4717523761       -0.6486823372        5.7931609147
 C       -10.0872567028       -0.3492495635        5.1243406003
 C       -10.3851528347        0.4953528263        3.8774763955
 O       -11.2832713843        0.1336187769        3.1432164427
 C        -9.5403230221        1.7810688610        3.5292000260
 C       -10.0330235431        2.6407062478        2.3632909611
 O       -11.0847974602        2.5849298031        1.7962306641
 C        -8.9077407129        3.7207655575        1.8556879371
 C        -8.9355033228        3.6703767782        0.2882570662
 C        -8.5435206525        2.2696081859       -0.3773291353
 O        -7.7928340915        1.6455315491        0.3384953784
 C        -8.4957331221        2.0364712648       -1.9286683701
 C        -7.0986888754        2.6819692531       -2.3114425191
 O        -6.3108595719        2.8848532428       -1.3909248919
 C        -6.6267708188        2.9136472326       -3.8008736249
 C        -5.6378300290        4.1482157938       -3.6950352774
 C        -6.3143623805        5.3242760159       -4.5225395390
 O        -7.3986720416        5.2643333930       -5.1129498092
 C        -5.4525154424        6.7147898332       -4.8317023054
 C        -5.7779904304        6.9820852494       -6.4589010078
 O        -4.9600560352        6.6933057888       -7.3653075971
 C        -7.0789539064        7.6740629635       -6.9419718960
 C        -6.9905864976        8.6181441527       -8.1403699274
 C        -5.9566427164        9.7070610097       -7.8333331098
 O        -5.2816781589        9.8628082876       -6.8542674959
 C        -5.6394932966       10.6181261183       -9.0979794110
 C        -4.7346857677        9.5549739314       -9.8515617475
 O        -5.4166466500        8.7638716579      -10.4904521884
 C        -3.2891721376        9.4151139917       -9.7544493292
 C        -6.7169575593       11.0638938582      -10.1913698014
 C        -4.8853581917       12.0065461024       -8.6215919939
 C        -5.9713046688        7.8313891244       -3.9874294634
 C        -4.0382157089        6.6665664951       -4.3756636173
 C        -8.2736829011        0.5464581177       -2.1849936910
 C        -9.6764632798        2.8085751496       -2.8855514426
 C        -9.6850451208        2.6212475958        4.8238964640
 C        -7.9553252379        1.3572727825        3.5447405766
 C       -13.6467554816        1.5390166692        8.2803748838
 C       -12.3316915163       -0.6820238437        8.5674068268
 C       -16.1990705733        2.5420542198        3.3775804621
 C       -18.2583196775        1.0701838531        3.5827063794
 H       -16.0201526380       -1.6272154814        1.2072038431
 H       -17.4944085740       -0.4690347502        1.1467539776
 H       -17.3475946106       -1.6385550351        2.4935267551
 H       -16.9178951213       -1.1407316594        5.7856483481
 H       -17.6395078664        0.2644235974        6.4341786306
 H       -16.1013129660       -0.7156754713        8.0947647318
 H       -15.8248039901        1.0145122927        7.8131722301
 H       -12.0805637722       -0.9751458710        4.9909424951
 H       -11.1475114977       -1.4138665959        6.5191562797
 H        -9.7477169690       -1.3945710885        4.8199068591
 H        -9.2628570808        0.0173346594        5.7547097780
 H        -7.9193742228        3.6498097918        2.1291181016
 H        -9.3030654434        4.6801552768        2.1053754284
 H        -8.1534938732        4.3124895048        0.0486487231
 H        -9.8577977230        4.2485021790       -0.0012276363
 H        -7.4272014085        3.1465179969       -4.4453041310
 H        -6.0804916414        2.0624852525       -4.3445334609
 H        -4.6397478011        3.9567915088       -4.2395238229
 H        -5.3915930805        4.4750306397       -2.6438934462
 H        -7.5217384680        8.2457929611       -6.1275654000
 H        -7.6724161666        6.7581342362       -7.0778185499
 H        -7.8993333944        9.1096055051       -8.3849481476
 H        -6.4904471714        8.1242214565       -9.0226411582
 H        -2.8542748815        9.6112594498       -8.7545848701
 H        -2.8782805517       10.1516211519      -10.4079994529
 H        -2.8887233690        8.5546858599      -10.0986426642
 H        -6.2755781100       11.7061077938      -10.9028617462
 H        -7.4633736659       11.8230647594       -9.8129465476
 H        -7.1195048180       10.1196227811      -10.6049086277
 H        -3.9181027371       11.8103463198       -8.2022704247
 H        -5.4416923003       12.4046957257       -7.8085465571
 H        -4.7706292515       12.5365729398       -9.6292240773
 H        -5.4728561098        8.6929135905       -4.4163769292
 H        -5.6967613475        7.5924714687       -2.9059231872
 H        -6.9916276011        7.8380912941       -3.9479842191
 H        -3.6476575788        7.6816127534       -4.4342805560
 H        -3.4301707582        6.0221867816       -4.9952456924
 H        -3.9525201379        6.3445105138       -3.3442217631
 H        -8.5017238904        0.3556925913       -3.2509834179
 H        -8.7570185422       -0.1141301319       -1.5356854731
 H        -7.2229931094        0.4053561200       -2.1059559098
 H        -9.6698423316        2.5872148221       -3.9285151442
 H        -9.4825545584        3.8897383149       -2.7712601230
 H       -10.5930226612        2.5021939178       -2.4545794140
 H        -8.8507083042        3.2869331836        5.0590266606
 H        -9.8679397684        1.9323739838        5.6448046728
 H       -10.5471997658        3.2680200364        4.9099182998
 H        -7.4154705951        2.3058531016        3.8073783791
 H        -7.6758004689        1.0973321853        2.4800228693
 H        -7.7102478796        0.5625168531        4.3581387028
 H       -12.8738228622        2.1581122189        8.8600900378
 H       -14.3500428568        1.3352547269        9.0449426409
 H       -14.0818200297        2.1493326488        7.5113978187
 H       -12.3382995620       -1.6962884695        8.1957855387
 H       -12.8947708083       -0.7213126906        9.4635563215
 H       -11.3140959865       -0.3382850138        8.7820059971
 H       -15.6711903560        2.6649572655        2.4233343443
 H       -15.5126129643        2.7314464115        4.2201046762
 H       -17.0242468410        3.2344749036        3.4579312544
 H       -18.7385462423        1.5196199296        4.4259567891
 H       -18.5922612129       -0.0068895815        3.4365726240
 H       -18.7649916872        1.6218076151        2.7628744595
 Na      -13.1826405517        1.8466670735        2.8641684411
