117

 C       -16.9204896373       -0.9220969543        1.6497439726
 C       -16.0657579659        0.2785552647        2.2972315150
 O       -14.8866905167        0.4127313346        2.1123918008
 C       -16.6680140548        1.0975846891        3.5520381295
 C       -15.9877580363        0.6602928496        4.8805405984
 O       -14.8032174364        0.9140572869        4.9226326279
 C       -16.7071984610       -0.0223558278        6.0902783845
 C       -15.8055425820       -0.1355932895        7.3603225455
 C       -14.3570708953       -0.6106281502        7.0792001055
 O       -14.0314294946       -1.6197672968        6.5239297172
 C       -13.0714522855        0.3279111768        7.6382791564
 C       -12.3150904398        0.5661787214        6.2518461710
 O       -12.4299956463        1.5533233776        5.5816345584
 C       -11.6110703932       -0.7390275348        5.7319736520
 C       -10.2895549406       -0.3983831704        5.0087063971
 C       -10.4795553572        0.4508924008        3.7616191050
 O       -11.4519361647        0.2485668459        2.9715817625
 C        -9.5828635203        1.7521393448        3.6315794593
 C        -9.9419727867        2.6253980341        2.2995946319
 O       -11.0194634029        2.5138932329        1.7272578031
 C        -9.0417926333        3.8230002624        1.8157312461
 C        -8.8713388339        3.8296725455        0.3086016170
 C        -8.3800022442        2.4611476475       -0.2092260519
 O        -7.9257134106        1.6275975482        0.4859376505
 C        -8.4736705179        2.1114408147       -1.8427245666
 C        -7.0971007992        2.7480220953       -2.2415512130
 O        -6.3237335475        2.8440016880       -1.2705024737
 C        -6.6901236237        2.9397368222       -3.6390156016
 C        -5.6898634562        4.1651969923       -3.8594764105
 C        -6.2226492104        5.3234062342       -4.7165618222
 O        -7.3725047837        5.1673961297       -5.0968189451
 C        -5.3461649946        6.6418799722       -4.9336778584
 C        -5.6818992034        6.9626494929       -6.5246831252
 O        -4.9306590503        6.6141381119       -7.5370509051
 C        -7.0942163703        7.4866838161       -6.8319202092
 C        -6.9518856195        8.5558717726       -7.9752978904
 C        -5.9423657161        9.7726188781       -7.9016668671
 O        -5.3477384955        9.8667658281       -6.8795696613
 C        -5.6077242918       10.5927376752       -9.2376680037
 C        -4.7435090201        9.5514544244       -9.9950025101
 O        -5.3114023387        8.6581093657      -10.5677128613
 C        -3.2248333156        9.5994346697       -9.6688384525
 C        -6.6884670613       11.0029365249      -10.2215620553
 C        -4.9013820259       11.9461990913       -8.7591932509
 C        -5.9760422401        7.8796026375       -4.1141606965
 C        -3.8888332545        6.3885820682       -4.4775454043
 C        -8.2273272995        0.5686987948       -2.1562779681
 C        -9.5837311987        2.7153108633       -2.6616410890
 C        -9.7313221016        2.7993489627        4.8570644083
 C        -8.1060129822        1.1415638367        3.7706061744
 C       -13.3229676690        1.6252731892        8.4879838073
 C       -12.2504594715       -0.5509711662        8.6752742638
 C       -16.2188822015        2.6948613446        3.4714684055
 C       -18.1288567434        0.9493797845        3.6619367677
 H       -16.4375665400       -1.8100512449        1.1344049531
 H       -17.7508747076       -0.3810654624        1.0128317286
 H       -17.5245468786       -1.3301558570        2.4567810369
 H       -17.1678202014       -0.8288824063        5.6386431259
 H       -17.6352095016        0.5324931206        6.4398873206
 H       -16.2835542277       -0.7028668400        8.0935489268
 H       -15.7696840554        0.9018452803        7.6355265012
 H       -12.3163903049       -1.2032920340        5.0904719437
 H       -11.1788631293       -1.3488646579        6.4936140801
 H        -9.7083879649       -1.3455298213        4.7443749496
 H        -9.5806508187        0.1257611322        5.7249690932
 H        -7.9562984641        3.5230211037        2.0821201090
 H        -9.3188989179        4.8161834412        2.2383932613
 H        -8.3039008631        4.6953996127        0.0386918053
 H        -9.8012711630        4.0569390686       -0.1088357531
 H        -7.5539352283        2.9533675730       -4.2962617341
 H        -6.1082899624        2.0843446907       -4.0180703369
 H        -4.8399208561        3.7000150062       -4.4342938753
 H        -5.2874330557        4.5803799194       -2.9434674684
 H        -7.4886229321        7.9652810892       -5.8920436174
 H        -7.7656925631        6.6220341748       -7.1441248935
 H        -7.9228225235        9.0909883146       -8.0869185970
 H        -6.6868148258        8.0085029625       -8.8651117066
 H        -2.9997996542        9.7001386312       -8.5961097195
 H        -2.5724869937       10.2854482339      -10.1920701450
 H        -2.7936830990        8.6607319870       -9.9774638241
 H        -6.3267905050       11.4075608110      -11.1631791014
 H        -7.0561163795       11.8468512196       -9.8042264876
 H        -7.4604974306       10.2235597390      -10.3222135516
 H        -4.0355490013       11.6870184414       -8.1151018994
 H        -5.6533313444       12.4550123248       -7.9743312962
 H        -4.6823631882       12.3915026912       -9.6535927782
 H        -5.2237759453        8.6526899815       -4.3721024901
 H        -6.1357861442        7.6133904368       -3.0671026935
 H        -6.9842271767        8.1573303624       -4.4795810093
 H        -3.2727557044        7.1808559657       -4.8216955476
 H        -3.5557887895        5.4237318333       -4.8084127232
 H        -3.8365719859        6.4227839105       -3.4638401076
 H        -8.3415806777        0.3180404332       -3.1332716487
 H        -8.8101999386       -0.0752011517       -1.4781103293
 H        -7.2248332787        0.4107802827       -1.9397461938
 H        -9.2960715418        2.7174680124       -3.7061408788
 H        -9.7106324121        3.7345769066       -2.4131666005
 H       -10.4882585700        2.0946717980       -2.5329109715
 H        -8.9828508795        3.6028349465        4.7428050697
 H        -9.5359601713        2.3223195819        5.8088973416
 H       -10.6338382457        3.2763818265        5.0546937928
 H        -7.4344909423        1.9856055663        3.9429849199
 H        -7.9179184134        0.6523060576        2.8153877586
 H        -7.9742583932        0.4686250083        4.6808074291
 H       -12.3777935553        2.1265173610        8.7291252648
 H       -13.7904710457        1.4453395662        9.4369884579
 H       -13.9089769872        2.3255904951        7.8787680297
 H       -12.3868584465       -1.6060030341        8.4823778422
 H       -12.6314670871       -0.4235355536        9.6020418740
 H       -11.2095935313       -0.2777948383        8.6235603009
 H       -15.8253063926        3.0816419362        2.5784639314
 H       -15.5723677663        2.8819063123        4.3261263654
 H       -17.1919970088        3.1787907296        3.8408858842
 H       -18.5989433508        1.4775318666        4.5291691964
 H       -18.4194980429       -0.0701684420        3.7246585214
 H       -18.6648540702        1.4052376631        2.8147441816
 Na      -13.2306820924        1.7364848424        2.9887746790
