117

 C       -16.9424806419       -0.5898973598        1.6790503568
 C       -16.0088946489        0.3922589622        2.5028243016
 O       -14.9274937628        0.4120576569        1.9457805912
 C       -16.7263230308        1.2021050661        3.6409087122
 C       -15.9135687635        0.7163268560        4.8567958611
 O       -14.7199428438        0.9895954149        5.0057464014
 C       -16.6364059047        0.0743716908        5.9181985983
 C       -15.8505346036       -0.0933863161        7.2497233336
 C       -14.2686808381       -0.4376082546        7.1727786470
 O       -14.0307588333       -1.5701099379        6.7198983767
 C       -13.0270419228        0.3726556695        7.6576938544
 C       -12.3522177632        0.4021587841        6.2976522123
 O       -12.4511786537        1.4211096279        5.6064009283
 C       -11.7398826605       -0.7950460509        5.6519039916
 C       -10.4735700047       -0.3880839617        4.8762189775
 C       -10.7992535617        0.7048386659        3.8027278454
 O       -11.5072770063        0.3213884089        2.8688603028
 C        -9.6159766674        1.8166924172        3.6754982241
 C        -9.8242188792        2.5433657261        2.3510945037
 O       -10.9813239936        2.4412564109        1.8479098032
 C        -9.0103050275        3.7064977866        1.8344830143
 C        -8.8522803864        3.7707185642        0.2776121864
 C        -8.4550085246        2.4525435653       -0.1611358894
 O        -8.2405568347        1.5852104974        0.7273726759
 C        -8.3005052664        2.1967991090       -1.6809419920
 C        -6.8406915500        2.8773078177       -2.1264844242
 O        -6.0543877658        3.0751784652       -1.2667850290
 C        -6.6165489122        3.0500790780       -3.5981471395
 C        -5.5630932216        4.0766042599       -3.9777504571
 C        -6.2934811083        5.3195961555       -4.7552601776
 O        -7.4085158234        5.2615945123       -5.1794437494
 C        -5.4006828796        6.4762963847       -5.1201651528
 C        -5.5908054711        6.9054807944       -6.5864193506
 O        -4.7998619598        6.5258943723       -7.3348776981
 C        -6.9960359339        7.5216723374       -6.9762614732
 C        -7.0975692223        8.5095625879       -8.1005107386
 C        -6.0507843048        9.7131642736       -7.9364571754
 O        -5.3836742255        9.9884070762       -6.9089030822
 C        -5.6680176753       10.5599634588       -9.2137585358
 C        -4.6758224371        9.4477742975       -9.9412814542
 O        -5.0005161948        8.5945165812      -10.7528480706
 C        -3.1538537889        9.6865695778       -9.6444519836
 C        -6.8946702601       10.8586511025      -10.0932335921
 C        -4.8247156320       11.7841706665       -8.8535814823
 C        -5.8197193928        7.7274055225       -4.1601040983
 C        -3.8474383586        6.1551978950       -4.8852560687
 C        -8.3103653725        0.6694647855       -1.9667885914
 C        -9.6284176458        2.6037886378       -2.3250525931
 C        -9.8377487146        2.8317887578        4.7438439334
 C        -8.2822278922        1.1451460375        3.6758281813
 C       -13.1121530909        1.7222837586        8.3671680472
 C       -12.1510437359       -0.5204457500        8.6691162653
 C       -16.4533610324        2.7013490567        3.3473208657
 C       -18.2778341917        0.8904216215        3.6939726574
 H       -16.3125039974       -1.1139153870        1.0518159051
 H       -17.6271273537        0.0408914295        1.0670931819
 H       -17.5696935420       -1.3370981390        2.1490822964
 H       -17.0192315272       -0.8738352639        5.5212853983
 H       -17.5721477800        0.5408584188        6.0366765662
 H       -16.2712435374       -1.0728252479        7.5663153066
 H       -16.0957613720        0.6656716452        7.8967716455
 H       -12.5309175102       -1.1264791845        4.9200077594
 H       -11.4039095282       -1.5379891283        6.3237665016
 H       -10.0733556214       -1.1281816110        4.1914507844
 H        -9.6293267858       -0.1925185876        5.5742823517
 H        -7.9791803129        3.6299096326        2.3845533314
 H        -9.5835417596        4.6450708361        2.2004757393
 H        -8.3068558613        4.6232478929       -0.2444487761
 H        -9.8447407679        4.0288812113       -0.0214457624
 H        -7.6014058817        3.3293363159       -4.1276998211
 H        -6.3691818380        2.1483430116       -4.0654996334
 H        -4.7487784161        3.6316470924       -4.4513907889
 H        -5.2442157282        4.5531386018       -3.0746474424
 H        -7.4889284253        7.8512675602       -6.0536916859
 H        -7.5926033117        6.6800536901       -7.4384246161
 H        -8.1189350606        8.9781255667       -7.9783057330
 H        -6.9489416346        7.9987277207       -9.0215321465
 H        -2.9193938961        9.7259503929       -8.6088540435
 H        -2.6664689653       10.5608029201      -10.1315845574
 H        -2.4513217499        8.8384362946      -10.1026276725
 H        -6.6406463984       11.0323958813      -11.1599392158
 H        -7.3249715904       11.8422860172       -9.7699939538
 H        -7.6314791590       10.1528510030       -9.9293731074
 H        -4.2022384282       11.4676207933       -7.9562231507
 H        -5.5108349444       12.4969276752       -8.4422001977
 H        -4.3212413011       12.0469816709       -9.7916587148
 H        -5.0637226041        8.4773399119       -4.3970714612
 H        -5.7713843183        7.3241084585       -3.1816082955
 H        -6.9287098238        8.0597011026       -4.3406690339
 H        -3.2475228764        6.8776625521       -5.3927877146
 H        -3.6668007197        5.1319077534       -5.0615099046
 H        -3.7212116844        6.3587495210       -3.8163310575
 H        -8.3010913075        0.3817413090       -3.0134914816
 H        -9.2054524174        0.3883875464       -1.4375095594
 H        -7.5018096777        0.0669229011       -1.5446024323
 H        -9.3654100780        2.6991176823       -3.3912711567
 H       -10.0055079182        3.5595747336       -2.0326503920
 H       -10.3514443703        1.7851818179       -2.1908151197
 H        -9.5285922967        3.8131430503        4.4239394798
 H        -9.3846566349        2.7299108907        5.7221685780
 H       -10.8908241315        2.9590804946        5.0327976209
 H        -7.5159015344        1.8750821526        3.5235607306
 H        -8.2940776812        0.3259707994        2.9945936314
 H        -8.1253521506        0.8436317165        4.6322479447
 H       -12.1469961868        2.0787050169        8.3904696190
 H       -13.4280898715        1.6611291009        9.4515995923
 H       -13.6888961782        2.4571611404        7.7865450468
 H       -12.2818244550       -1.5495908198        8.4631060957
 H       -12.4490230185       -0.4191782244        9.7967413458
 H       -11.1791073517       -0.2410355992        8.4654108165
 H       -16.3397227875        2.8928389335        2.2637818577
 H       -15.5631384965        3.0132461854        3.8846188649
 H       -17.2726551242        3.2391163571        3.8155440399
 H       -18.7564757271        1.6437406466        4.3766678718
 H       -18.5625224886       -0.0529775061        4.1205235160
 H       -18.7644885781        1.1011291587        2.7559854529
 Na      -13.1729939426        1.5665804102        3.2002298043
