117

 C       -16.9828856571       -0.2393661463        1.4244880245
 C       -16.2356605483        0.5025499069        2.3280161207
 O       -15.0150288786        0.7086763526        2.0582787594
 C       -16.8451955510        1.3065411184        3.6334212635
 C       -15.9783462219        0.8571977445        4.9044074005
 O       -14.8417932889        1.2396607308        4.9807606343
 C       -16.3993207696        0.0472712174        6.1401342440
 C       -15.6918238061        0.2969285596        7.4893752505
 C       -14.3896644368       -0.5154301058        7.4274449951
 O       -14.3287681316       -1.6736138332        7.1404254320
 C       -13.0178116152        0.2751728226        7.5707831538
 C       -12.2775706731        0.3958339481        6.1887017212
 O       -12.1227357364        1.4873346452        5.6991631099
 C       -11.8016675606       -0.8103085284        5.4398301568
 C       -10.4694639523       -0.5581399554        4.8730085398
 C       -10.6146921159        0.5130334542        3.7670961844
 O       -11.4252103063        0.1677598277        2.8760780959
 C        -9.8134284290        1.7747588604        3.6431507243
 C       -10.1606176951        2.7464893232        2.3335454482
 O       -11.2103219645        2.8574727886        1.7872966725
 C        -9.1451211793        3.7791689981        2.1315170993
 C        -8.8385712206        3.6703442493        0.6544707125
 C        -8.4551324486        2.2755176080        0.1665034572
 O        -8.8702486716        1.3660456907        0.8249292212
 C        -8.0817224293        2.1731977617       -1.3956106382
 C        -6.9496894419        3.0292357483       -1.9942484542
 O        -5.9920536630        3.4164088457       -1.3184079852
 C        -6.8612779298        3.0105775881       -3.5653704884
 C        -5.7138624831        3.9268661044       -4.0435384840
 C        -6.2240710913        5.1557063509       -4.9145984993
 O        -7.4403263536        5.3067878804       -5.0722999168
 C        -5.1884785770        6.3494069617       -5.3035856232
 C        -5.5662584858        6.9638193165       -6.7891732119
 O        -4.7665384697        6.6760425441       -7.7747496322
 C        -6.9969255504        7.2069054419       -7.0374313437
 C        -6.8934560836        8.2757480112       -8.2255881259
 C        -5.9910423350        9.5279350046       -7.9676244489
 O        -5.7362059206        9.9138988864       -6.8991321762
 C        -5.5593564763       10.4102476174       -9.2710566651
 C        -4.4724808797        9.4493367161      -10.1255202116
 O        -4.8066767950        8.6647841024      -10.9497766086
 C        -3.0163981542        9.5979729637       -9.6405365150
 C        -6.7641904386       10.5159809606      -10.1362961386
 C        -4.9988357184       11.8500115835       -9.0002291810
 C        -5.3285792823        7.4146370063       -4.1392322699
 C        -3.6664003860        5.9079360304       -5.2701215410
 C        -7.9069288409        0.6593321475       -1.5922383372
 C        -9.2245253105        2.7832907805       -2.1499186651
 C        -9.8936970176        2.7471004353        4.7808758347
 C        -8.3157628348        1.2801138366        3.6063833257
 C       -13.2280378404        1.7089153651        8.0379235655
 C       -12.1700149735       -0.5056930533        8.5796875736
 C       -16.7327634898        2.8343997660        3.0644638055
 C       -18.3349760382        0.9106945722        3.8512576848
 H       -16.2389568573       -0.6643727817        0.7532547094
 H       -17.8061088063        0.3674226023        0.9234499138
 H       -17.4518074699       -1.0442384604        1.8925540619
 H       -16.2878614631       -1.0632468802        6.1200003917
 H       -17.5547598193        0.0473444277        6.2008335974
 H       -16.3133492005       -0.1442239035        8.2689875156
 H       -15.4454947048        1.4298332885        7.6512905512
 H       -12.3881934785       -0.8792311883        4.5138280310
 H       -11.8953234216       -1.7736894207        6.0532500675
 H       -10.0172292191       -1.3728837600        4.3001501509
 H        -9.6955322095       -0.3047715609        5.5495269848
 H        -8.2333259759        3.6543214606        2.6266574734
 H        -9.5647164121        4.7060234286        2.3311973550
 H        -7.9867336033        4.3281043710        0.5053104716
 H        -9.6344938130        4.2864813835        0.0710836280
 H        -7.6874858753        3.3568812050       -4.1151299169
 H        -6.7610754096        1.8886571449       -3.8142180712
 H        -5.1394059026        3.4204534491       -4.8883601361
 H        -5.0535426168        4.1924419281       -3.1889120676
 H        -7.2585920253        7.6390163796       -6.0856525903
 H        -7.6119860423        6.4354819969       -7.3714405239
 H        -7.8510738411        8.7536299188       -8.2965152075
 H        -6.5844904140        7.8071309780       -9.1848731296
 H        -2.9059253331        9.5553461735       -8.5321200226
 H        -2.5635068888       10.5227443369       -9.9315866169
 H        -2.3555363112        8.9351232055      -10.0785772705
 H        -6.3348286280       10.9673884378      -11.0613607061
 H        -7.5398276870       11.1497687134       -9.7134542941
 H        -7.3500703526        9.5266706944      -10.3982003869
 H        -4.3133107221       11.7483359691       -8.1766900021
 H        -5.9913089884       12.4915843013       -8.8222384927
 H        -4.6106911390       12.1740498598       -9.9187057676
 H        -5.1475810004        8.3863055527       -4.5446563221
 H        -4.6929859146        7.0674543995       -3.3144798769
 H        -6.3610516686        7.4100324815       -3.8878399654
 H        -3.0848056379        6.8695286134       -5.1137895451
 H        -3.5242566269        5.2810309382       -6.2049601282
 H        -3.4555492525        5.2552816883       -4.3989436901
 H        -7.3770545377        0.5086490287       -2.5498452806
 H        -8.9316555708        0.1372142222       -1.5635839986
 H        -7.3087770288        0.1158846939       -0.8234662756
 H        -9.4704036345        2.2055172286       -3.0372687711
 H        -9.0410368814        3.8270841733       -2.4664227352
 H       -10.0327702448        2.7448372450       -1.4145974044
 H        -9.3013410676        3.7007445112        4.7328283726
 H        -9.4184446705        2.2730671561        5.6664534297
 H       -10.8432655082        3.0532946935        5.1767469892
 H        -7.7379499521        1.9526303845        2.9989197392
 H        -8.2344977658        0.2315215469        3.3672166637
 H        -7.7888324461        1.4348824414        4.6052129499
 H       -12.1874771676        2.2006745430        8.1032023599
 H       -13.7026692004        1.7899090777        8.9740323082
 H       -13.7386821574        2.2546594658        7.2429026192
 H       -12.0426385663       -1.6219125590        8.3663151963
 H       -12.6296304426       -0.4486258534        9.4898626607
 H       -11.1619549373        0.0518119103        8.6016119495
 H       -17.5118021976        2.7642134299        2.3711593833
 H       -15.8589522453        2.9644544953        2.4372022671
 H       -16.7403188343        3.6740254536        3.7999961047
 H       -18.7302401808        1.3068007095        4.8156019578
 H       -18.5773726394       -0.1542932094        4.0187672984
 H       -18.8711211301        1.3418740897        2.9568821621
 Na      -13.1753686127        1.5517334436        3.4284650883
