117

 C        -4.3123483497       -0.9177932109        9.1110577883
 C        -5.2756006707        0.2584400572        9.1362215846
 O        -4.8196893401        1.2671377358        9.5572047446
 C        -6.7111322287        0.1898334044        8.6544254126
 C        -6.8129747358        0.7408760007        7.2324926952
 O        -6.8427076660       -0.1288250242        6.3278727499
 C        -6.9602733521        2.1802340554        6.8747723008
 C        -5.8229975459        2.7854433600        6.0370521043
 C        -6.2837411600        3.5840059426        4.7832014876
 O        -7.4140495743        3.6492442861        4.4597843680
 C        -5.0978363463        4.2914773284        3.8501985328
 C        -5.4492944419        4.1997934215        2.3641039156
 O        -4.6377972910        3.5845121052        1.6363453323
 C        -6.7318595446        4.8114599350        1.7615394494
 C        -6.7532920423        4.5258780116        0.2500947953
 C        -7.9489506984        3.7505781868       -0.2999910533
 O        -8.6848658871        4.4387725136       -0.9939879549
 C        -8.3116743173        2.2401190146       -0.0267466560
 C        -9.7421827113        2.1394940847        0.6367815595
 O        -9.8545099209        2.3650957442        1.8204279876
 C       -10.9868081774        1.6221529012       -0.2268416147
 C       -12.2628511565        2.1253255839        0.3348583735
 C       -12.5336859240        3.5853487536       -0.0794370843
 O       -11.4741008580        4.2299228788       -0.1755453957
 C       -14.0258911474        4.1492181471       -0.4482420497
 C       -13.9869585625        4.0021749343       -2.0655564431
 O       -12.9557867469        3.8851021558       -2.7428104149
 C       -15.3356681096        3.9899032410       -2.8066956024
 C       -15.2749797515        4.5832184141       -4.2172814591
 C       -15.0145480795        6.0194512908       -4.1117589276
 O       -14.5921970509        6.5074974786       -3.0306870433
 C       -15.0280583347        6.7522445269       -5.4754258753
 C       -13.8210890460        6.1685172543       -6.2984047838
 O       -13.8101018053        5.2233822192       -7.0740351947
 C       -12.4907673100        6.9111393530       -5.9010881688
 C       -11.2659001688        6.1832834307       -6.5149529935
 C       -10.2831586379        5.5052215156       -5.5653953939
 O       -10.4597171899        5.7508654365       -4.3395683712
 C        -9.2621663618        4.4538029456       -6.0132082251
 C        -9.8625062004        3.0857045673       -5.4378589898
 O       -10.1068947418        3.0862531176       -4.2549333914
 C       -10.0388236507        1.9223802780       -6.4362391165
 C        -9.0255337459        4.4274428545       -7.4983860079
 C        -7.8973290387        4.6497460265       -5.3739708226
 C       -16.2746066149        6.5211821401       -6.2962252405
 C       -14.9159717097        8.2733933622       -5.2416906484
 C       -15.2014599962        3.3835344954        0.2405049731
 C       -14.0056357647        5.6125352980       -0.1753186331
 C        -8.4200192143        1.6128319690       -1.4416777456
 C        -7.3293790556        1.4807488763        0.9269766288
 C        -5.2324105919        5.6859125937        4.4341561000
 C        -3.6932253428        3.6617582540        4.0238243367
 C        -7.1982738254       -1.2148257719        8.7843541717
 C        -7.6121945511        1.0892368532        9.5963654798
 H        -3.3252126192       -0.4616722968        9.0996690783
 H        -4.4816791029       -1.5712870637        8.2444962793
 H        -4.3506279222       -1.5407728353       10.0384286348
 H        -7.1780592979        2.6865126875        7.8229937403
 H        -7.7942806479        2.2864176807        6.2091880900
 H        -5.1293962137        2.1047812364        5.6166913392
 H        -5.0875366826        3.3811412238        6.5624084776
 H        -6.7450552538        5.8890514667        1.9887761013
 H        -7.5493128194        4.3977817347        2.3368438690
 H        -5.8080705740        3.9357409537        0.0392742568
 H        -6.7984365803        5.5154865374       -0.3100007641
 H       -10.8762058402        0.5679654272       -0.1883930634
 H       -10.9451835422        1.9571159528       -1.3095303283
 H       -12.3065072706        2.1098903422        1.4040868404
 H       -13.0600463240        1.4754446090       -0.0750222478
 H       -16.1067806233        4.3831596722       -2.1630885266
 H       -15.4914278168        2.8425148969       -2.9282148751
 H       -16.0282405478        4.2094180249       -4.9171849502
 H       -14.2201193372        4.2544842461       -4.4917718785
 H       -12.3415184644        7.0786185400       -4.8315375999
 H       -12.5552823441        7.8954257119       -6.2578955387
 H       -10.7965151953        6.8172628328       -7.2813883274
 H       -11.5522588661        5.3710701553       -7.1657537341
 H        -9.1904653133        1.7859414330       -7.1357741695
 H       -11.0151859944        2.0322247054       -6.9268635443
 H        -9.9787778721        0.9400053926       -5.9770267084
 H        -8.7691874221        5.4539639678       -7.8414282295
 H        -9.9536969409        4.1883942822       -8.0670881241
 H        -8.3979344562        3.5647541365       -7.8734715669
 H        -7.8886974937        5.1854565828       -4.4207075843
 H        -7.1374858235        5.1162646861       -6.0769316414
 H        -7.5185510284        3.7055201475       -5.1463551684
 H       -16.4515778478        5.4405122807       -6.4342531515
 H       -16.2391182896        6.9688985549       -7.3310216386
 H       -17.1231856304        6.9406894037       -5.7874587994
 H       -14.7026769056        8.8536396259       -6.2010289411
 H       -14.2156074973        8.4456647197       -4.4839837766
 H       -15.9040852811        8.6345851569       -4.8851770760
 H       -14.9373270096        3.4382326012        1.3067838790
 H       -15.2516827637        2.3457158891       -0.0729530018
 H       -16.0673278373        4.0664786173        0.2262599993
 H       -13.8305030609        5.8169633919        0.9573719830
 H       -14.9406181568        6.1992371258       -0.4295808709
 H       -13.1368834170        5.9756879543       -0.7616416459
 H        -8.9752150007        0.6299818014       -1.5458337107
 H        -7.4844927719        1.4122467717       -1.7869052951
 H        -8.9196348985        2.2894403988       -2.1847416443
 H        -7.2001160151        2.2046785035        1.7714194954
 H        -6.3699387291        1.2005861661        0.4761276334
 H        -7.8352503895        0.5879159420        1.3046229186
 H        -5.3606873414        5.6235941958        5.5048129614
 H        -6.2111744816        6.1353028431        4.0323568869
 H        -4.3721481980        6.3190660087        4.2655749565
 H        -3.3251878745        3.9789344622        5.0080638574
 H        -3.0088658238        3.9748337000        3.1690334082
 H        -3.8404275099        2.5753178879        4.0838880684
 H        -6.5978059579       -1.8925566534        8.1906189590
 H        -8.2299842060       -1.1596670953        8.3868733241
 H        -7.2292468982       -1.4425757140        9.8259999848
 H        -7.9366472430        0.5551626676       10.4550529893
 H        -8.5716229011        1.5075180404        9.1768587437
 H        -6.9759649690        1.8993814221        9.9691883397
 Na      -10.7061451099        4.2962922255       -2.3805274519
