117

 C       -17.0993716195       -0.2063517243        1.2687281148
 C       -16.2122846121        0.5056914458        2.3457595007
 O       -15.0248461293        0.7796306936        2.1843439475
 C       -16.9250487710        1.2389493449        3.6392486705
 C       -16.0341672758        1.0753687112        4.9669852311
 O       -14.8535368399        1.4572236854        5.0001448123
 C       -16.5566939594        0.1427056603        6.0499838016
 C       -15.6634809224        0.4182055994        7.2435614699
 C       -14.3673154990       -0.4764259963        7.3006991899
 O       -14.5783368079       -1.6858599266        7.3987076119
 C       -12.9950043338        0.2877362971        7.5594818121
 C       -12.3084676538        0.3591696911        6.1323156044
 O       -12.0979230687        1.4490366677        5.6607679903
 C       -11.7749523534       -0.9314829473        5.4550624369
 C       -10.3926436014       -0.5798011329        4.8601329083
 C       -10.5907223684        0.4355678907        3.6939396536
 O       -11.4301232936        0.0494444534        2.7936103235
 C        -9.7624452256        1.7645561953        3.6806615844
 C       -10.2348786071        2.7998378533        2.4731592456
 O       -11.4407292266        2.7837933804        2.2197151221
 C        -9.2160226526        3.9468485421        2.0692301210
 C        -8.4600789078        3.8313336626        0.7105778142
 C        -8.5538219221        2.3789217816        0.1520325152
 O        -8.9896855950        1.4471161163        0.7601560399
 C        -8.1594042075        2.1590678529       -1.3484070532
 C        -6.7797937620        2.9576446754       -1.9499997075
 O        -6.0913992068        3.6097330984       -1.2213558409
 C        -6.8239676154        2.9922171445       -3.5175572675
 C        -5.6802671581        3.8631686770       -4.1389535644
 C        -6.1109616446        5.0996030655       -4.9122326684
 O        -7.2579228215        5.3917632576       -5.0463771609
 C        -5.1059945888        6.0817786235       -5.3961840696
 C        -5.6093906635        6.6641877333       -6.8174899128
 O        -4.7685035192        6.8178788661       -7.7236807594
 C        -6.9566767341        7.3482637905       -7.0082083852
 C        -6.8672779434        8.2088690724       -8.3525563880
 C        -6.0751756169        9.5251951118       -8.0549370700
 O        -5.7832428169        9.8691399160       -6.9078523684
 C        -5.5566553487       10.2733247605       -9.3792708567
 C        -4.4650121408        9.4446162840      -10.0034015699
 O        -4.8053562574        8.7905374965      -10.9991076721
 C        -2.9836753473        9.5629814406       -9.6019411077
 C        -6.6578518351       10.3831057366      -10.4334646225
 C        -5.1170011118       11.7032613988       -8.9026778195
 C        -5.2320153209        7.3494883312       -4.3764256574
 C        -3.5386724842        5.6275704324       -5.3637288186
 C        -7.7207423166        0.6420433140       -1.5789741997
 C        -9.3593148740        2.6810034610       -2.1568568273
 C        -9.8342219944        2.6634680231        4.9454997416
 C        -8.2735798920        1.3181365056        3.5126285177
 C       -13.2966360006        1.7165147238        8.1380429519
 C       -12.1015028435       -0.4286532954        8.6007187673
 C       -16.7893345800        2.7350461028        3.3497318594
 C       -18.4191371701        0.8876950778        3.9088017750
 H       -16.3668221908       -0.4398087817        0.4717510157
 H       -17.8857135476        0.5850432675        0.9046999864
 H       -17.7220050294       -1.1389022629        1.4589991211
 H       -16.5575905589       -0.9033660933        5.8248368445
 H       -17.6962063153        0.2810261494        6.1706235827
 H       -16.0913442424        0.2097338585        8.2302782530
 H       -15.4285739479        1.4463798756        7.1350026790
 H       -12.3386211833       -1.3028178904        4.5896911314
 H       -11.7292979266       -1.7001332361        6.1969521851
 H        -9.7946127272       -1.4339427966        4.4475351658
 H        -9.6540829195       -0.1074959511        5.5470574463
 H        -8.4118547464        3.9028098739        2.8294731644
 H        -9.7295280852        4.8640093952        2.0715745534
 H        -7.6062572387        4.4864687525        0.5999319392
 H        -9.0771281634        4.3333782455        0.0257086461
 H        -7.6986713987        3.6341114962       -3.7441433270
 H        -7.0621972173        2.0079296445       -3.9414814717
 H        -4.9810370214        3.2996782494       -4.8604456110
 H        -5.0870999505        4.2111065783       -3.2439674074
 H        -7.3479747840        7.8799708601       -6.1155552793
 H        -7.6678322360        6.5608902551       -7.3043696057
 H        -7.9171807729        8.4085066448       -8.6832127262
 H        -6.2834241998        7.7276442918       -9.1094481931
 H        -2.7354739513        9.4680821239       -8.6160609669
 H        -2.4798841039       10.4126144405       -9.9397525261
 H        -2.4587215677        8.7495433930      -10.2088622693
 H        -6.3595426564       11.2732440116      -11.0683145296
 H        -7.5839993569       10.4679386333       -9.9317582406
 H        -6.8280426481        9.5414076567      -11.0708272415
 H        -4.2010601239       11.6093382126       -8.2343042130
 H        -6.0282068233       12.1944864155       -8.5056819705
 H        -4.9947023936       12.2165508423       -9.8116843711
 H        -4.9929814404        8.2574908441       -4.9449048883
 H        -4.6300043539        7.1301136584       -3.5480465652
 H        -6.3814962713        7.4991082442       -4.2068587978
 H        -3.0372092913        6.4823701845       -4.9347427712
 H        -3.2048067209        5.3066018024       -6.3496576044
 H        -3.4215923388        4.7995030042       -4.6917763782
 H        -7.1881650361        0.6297082134       -2.4889815321
 H        -8.4912332110       -0.1780031561       -1.5534158284
 H        -6.9946347576        0.3337984963       -0.8387411907
 H        -9.4689155398        2.0559421611       -3.0489749393
 H        -9.2390262431        3.6938673231       -2.4563175411
 H       -10.2631032799        2.6386575633       -1.5222149389
 H        -8.9468494312        3.1600439239        5.3283413852
 H       -10.1352311917        2.1114696620        5.8290699647
 H       -10.5761144370        3.4455411701        4.9125546106
 H        -7.7266513980        2.1227838078        2.9089332070
 H        -8.2394976532        0.2676553405        3.0486327361
 H        -7.6845057266        1.2522239528        4.4558357651
 H       -12.3601488277        2.1036006098        8.4577090779
 H       -13.9356686168        1.5679513064        9.0318564999
 H       -13.7814174930        2.4464780059        7.4562810404
 H       -11.9388808727       -1.4709349772        8.3940108733
 H       -12.7195936799       -0.4169737729        9.5408395474
 H       -11.2128474528        0.1154052278        8.7702607121
 H       -17.6497632913        3.0436201004        2.8134399142
 H       -15.9344120817        2.9447412001        2.7312767652
 H       -16.6023441194        3.2440312142        4.3308731488
 H       -18.8089350787        1.0874988869        4.9544180447
 H       -18.6550235063       -0.1382934512        3.8595523991
 H       -18.9409444332        1.4209444375        3.0931231248
 Na      -13.1032390181        1.7076680966        3.3160890046
