117

 C       -17.1006585303        0.0610431556        1.2722421805
 C       -16.2368139107        0.7918956506        2.3483241583
 O       -15.0377996949        0.6590544638        2.1605287599
 C       -17.0159271972        1.3889222575        3.6344471965
 C       -16.1088032929        1.1840392502        4.8747519703
 O       -14.9763950566        1.6183455852        4.8128629783
 C       -16.6059577045        0.3209377379        6.1159199868
 C       -15.7859788103        0.4710138316        7.4335305137
 C       -14.5498409417       -0.3462363110        7.5360972135
 O       -14.5701281438       -1.5399496374        7.6115929987
 C       -13.0531324289        0.2799627727        7.6792514114
 C       -12.4806656424        0.2680637853        6.1817117845
 O       -12.6978179364        1.2426280304        5.4758578690
 C       -11.5494010273       -0.8848754694        5.7030776427
 C       -10.3103660503       -0.5468750730        4.8865736901
 C       -10.5442424019        0.5002602802        3.7556724057
 O       -11.2353588268        0.2881965493        2.8483769981
 C        -9.5529283227        1.7463329643        3.6043365720
 C       -10.1476264362        2.8477551025        2.6158720736
 O       -11.3267594822        3.1208639144        2.7221022071
 C        -9.4000869929        4.0310573266        1.9100246093
 C        -8.1955174913        3.7815316514        1.0369221676
 C        -8.5543995083        2.5249741949        0.1871599672
 O        -9.2912072318        1.6111568799        0.6141368547
 C        -8.2228834178        2.3155523396       -1.2836990696
 C        -7.0917870368        3.1740110102       -1.8860032638
 O        -6.3451204646        3.7750584120       -1.0996552744
 C        -6.7829476161        3.0012813057       -3.5081564683
 C        -5.5319328750        3.7810226290       -4.0154837666
 C        -5.9937720753        5.0459406502       -4.8068226764
 O        -7.2369363882        5.1410613788       -4.8931264313
 C        -5.0014261789        6.0652173852       -5.5028555555
 C        -5.3005020234        6.7476172592       -7.0133383964
 O        -4.4615961938        6.7006545806       -7.8333596540
 C        -6.7274436889        7.1134771693       -7.1512623168
 C        -6.9486674898        8.0041577285       -8.3047606132
 C        -6.1519792271        9.3706343612       -8.3305419722
 O        -5.9342009043        9.7317822368       -7.2340403189
 C        -5.5715044204       10.2070225932       -9.6053485478
 C        -4.3459798069        9.3781630438      -10.1563395774
 O        -4.4968853369        8.6842960586      -11.0961892709
 C        -3.1167191360        9.5412745308       -9.3669264044
 C        -6.7765982991       10.4625519454      -10.4130855240
 C        -5.1581327775       11.5779442603       -8.8975980518
 C        -4.8079959397        7.3084779267       -4.5646221578
 C        -3.5569723012        5.2683816960       -5.7722755429
 C        -7.6877634328        0.8825162240       -1.4356756824
 C        -9.5089309377        2.1307939542       -2.2575933309
 C        -9.4650612325        2.3642429772        5.0391733861
 C        -8.0860855259        1.2633542899        3.2931933091
 C       -13.0439673172        1.8216221038        8.1649228510
 C       -12.2557791304       -0.6842444510        8.6185354904
 C       -17.1726600963        3.0896489709        3.6243331879
 C       -18.4297974278        0.7312487934        3.6485821322
 H       -16.7586069383       -0.4322723204        0.3767179394
 H       -17.9994390133        0.5939700354        1.1407493388
 H       -17.4953451844       -0.6720415488        1.8906060362
 H       -16.4212919600       -0.7080701650        5.7039598842
 H       -17.6370276442        0.3737717356        6.3088962133
 H       -16.3076146992        0.1204512449        8.3055380090
 H       -15.6185240974        1.6164310119        7.6088716667
 H       -12.1411720184       -1.6236152051        5.1294971565
 H       -11.1459895608       -1.5452062909        6.5342973150
 H       -10.0973270459       -1.4677114680        4.3378139541
 H        -9.3572433315       -0.4305959737        5.3903897743
 H        -9.1579637351        4.8191439471        2.6629552227
 H       -10.2280798727        4.3696257869        1.1734556633
 H        -7.2342690132        3.8987199043        1.5438508376
 H        -7.8708522412        4.6282576179        0.2689028023
 H        -7.6456870392        3.4758575131       -4.0281787579
 H        -6.7329556449        1.9421076057       -3.8127332157
 H        -4.9709165024        3.1416660548       -4.6264051259
 H        -4.9226056041        4.0715220876       -3.1859478060
 H        -6.7912802924        7.8345257399       -6.3001931520
 H        -7.3536107295        6.1971717359       -6.9274270219
 H        -7.9877715920        8.2658230856       -8.2853708382
 H        -6.6621872812        7.5417512848       -9.2939968553
 H        -3.3297762888        9.5419734378       -8.2167134578
 H        -2.7344682706       10.6088475760       -9.5030988856
 H        -2.3065456856        8.9237475968       -9.5859734658
 H        -6.7272589250       11.3435625246      -10.9328767977
 H        -7.6388423059       10.1534236105       -9.8793555466
 H        -6.8192747880        9.7077447985      -11.2539918189
 H        -4.3950304752       11.2930311269       -8.2823534822
 H        -6.1638252833       11.9378855822       -8.4578816678
 H        -4.9629449180       12.3504791783       -9.6413265213
 H        -4.0574165300        7.9704498322       -5.0255118313
 H        -4.4470415674        6.8811724593       -3.5564784782
 H        -5.6679467595        7.8511018573       -4.6291447954
 H        -2.8011267275        6.0073704937       -5.6138680513
 H        -3.4978562439        4.9844324972       -6.7960152566
 H        -3.5506553037        4.4252985849       -5.1303303020
 H        -7.7817484186        0.4384826084       -2.4473834280
 H        -8.2144144079        0.1947388306       -0.7872340622
 H        -6.6857100404        0.8841274156       -1.0891858067
 H        -9.0829810473        2.3797993167       -3.2067895420
 H       -10.3248312288        2.8312521719       -1.9666391253
 H        -9.9583242469        1.1659315271       -2.2478032907
 H        -8.4946979166        2.6706654530        5.4145218458
 H        -9.8037561879        1.8039672481        5.8838850963
 H        -9.9991142418        3.2815461770        5.1726123232
 H        -7.2851680326        1.9498195048        3.4681633305
 H        -8.1301085048        0.9374307841        2.3142076924
 H        -7.8951901583        0.3245555382        3.8334197881
 H       -12.0644852647        2.1031074471        8.6724463023
 H       -13.8840988781        1.8862124452        8.8014467033
 H       -13.3006275559        2.4765812459        7.3622485012
 H       -12.4496960581       -1.7257869147        8.3209385672
 H       -12.6282246558       -0.5455742217        9.5454008464
 H       -11.1605590878       -0.4366662949        8.6714625441
 H       -17.6044735084        3.3629506616        2.6423777673
 H       -16.1626959585        3.5205501761        3.7286603738
 H       -17.8155503155        3.3870202402        4.4503051922
 H       -19.0850199803        1.2164556721        4.2756262500
 H       -18.3589863440       -0.2743455449        4.1081953094
 H       -18.7499624772        0.6261465652        2.6567292936
 Na      -13.2509955074        1.7832127135        3.2021912386
