117

 C       -17.0688445905        0.1349377317        1.1437393744
 C       -16.3403782845        0.8242891202        2.3436954963
 O       -15.1045953918        0.8424198716        2.1888058366
 C       -17.0883573942        1.5230111541        3.6328061943
 C       -16.1980613070        1.2976598759        4.9086851706
 O       -15.0386359379        1.6213527670        4.9023738319
 C       -16.5267243524        0.3795555034        6.1365732276
 C       -15.7758208621        0.6165032310        7.5053384843
 C       -14.5178138753       -0.2947954468        7.6102136230
 O       -14.6650819322       -1.5076738569        7.5994695757
 C       -13.0272254482        0.2444373633        7.6849276097
 C       -12.4167690779        0.2671785052        6.2044411144
 O       -12.8796392432        1.1022416361        5.4637195368
 C       -11.5076925968       -0.8662876802        5.7526054004
 C       -10.2740394632       -0.4929232063        4.8428602261
 C       -10.3767146939        0.5271886079        3.6533963180
 O       -11.3716029716        0.4157536028        2.8859692903
 C        -9.3892325979        1.8406690275        3.6815701775
 C       -10.1547680330        3.1253639388        2.7854416444
 O       -11.3529472587        3.0992640944        2.8972323576
 C        -9.3076214032        4.1187178594        1.9045822650
 C        -8.2076543400        3.5069294026        1.1241842906
 C        -8.7574090516        2.4694766973        0.0903246914
 O        -9.5241451705        1.7999281237        0.7051516146
 C        -8.2879405396        2.1990819597       -1.4287620072
 C        -7.1809476998        3.2040974481       -1.9350768389
 O        -6.5357347104        3.9227907367       -1.1912471848
 C        -6.7054013182        2.9049074739       -3.3619605031
 C        -5.5998393005        3.8753042548       -3.8422964005
 C        -6.0171308393        5.0000590770       -4.9069577174
 O        -7.1573880814        5.3759197282       -5.0537342206
 C        -4.7759116313        5.9477342421       -5.6021332301
 C        -5.2701089216        6.5612676815       -7.0069337978
 O        -4.4228370640        6.6844106743       -7.9344169791
 C        -6.7618456815        6.9840854475       -7.3011004442
 C        -6.9241178376        7.9421130283       -8.5207786487
 C        -6.0920289105        9.2470724762       -8.3079727982
 O        -5.9578961541        9.6864519845       -7.1993019502
 C        -5.6873559964       10.0344021749       -9.5271777254
 C        -4.4320057046        9.4099483949      -10.1664234465
 O        -4.4352814262        8.6828938037      -11.1354042117
 C        -3.1224055690        9.5503506508       -9.1965205980
 C        -6.8398365664       10.4213493921      -10.5403660289
 C        -5.1715958107       11.5680052684       -9.0791013395
 C        -4.4304260492        7.1222169227       -4.5041757119
 C        -3.4555466296        5.1310532966       -5.7737582769
 C        -7.3966957216        0.7998835253       -1.2612218802
 C        -9.5574060311        2.1719786583       -2.2783714229
 C        -9.1963752770        2.3720565916        5.1327086433
 C        -8.0251535064        1.1815140683        3.1858813040
 C       -12.9092307397        1.7181722295        8.1938858620
 C       -12.3978036364       -0.6569897030        8.7146586990
 C       -17.4427512446        3.0012183957        3.4529326220
 C       -18.4375298666        0.8262160747        3.7057694821
 H       -16.4724501092       -0.0786534276        0.3372120639
 H       -17.8715257193        0.8438696048        0.8693316371
 H       -17.6106729965       -0.7086052571        1.3836932265
 H       -16.2737342877       -0.5948538067        5.6981306954
 H       -17.6561138913        0.3871535603        6.4924305837
 H       -16.4466347817        0.2627466283        8.3501609325
 H       -15.7592566572        1.7493633602        7.6185829596
 H       -12.2474526659       -1.6001821724        5.3347947275
 H       -10.9768103383       -1.5286425961        6.5178789802
 H        -9.8981242240       -1.4572509141        4.5214623490
 H        -9.4752113834       -0.1602737875        5.4229218665
 H        -8.9719175834        4.9241616674        2.5998988755
 H        -9.9055723492        4.4975142096        1.1490181080
 H        -7.3876900160        3.0393861662        1.7247214859
 H        -7.4666091276        4.2348833871        0.7451531397
 H        -7.5765903861        3.0622517557       -3.9319126789
 H        -6.3794876191        1.8183229025       -3.5525806569
 H        -4.9620956541        3.1983814756       -4.4259259494
 H        -5.0122844563        4.2410763336       -3.0426508800
 H        -7.0756721618        7.4990786362       -6.3814151959
 H        -7.1797067359        6.0330086219       -7.3733269100
 H        -7.9339006201        8.3233895023       -8.6568974232
 H        -6.6318017373        7.4079751448       -9.4589348130
 H        -3.3448162937        9.4206397259       -8.1515308264
 H        -2.6207621611       10.5172440833       -9.1884108788
 H        -2.2865208901        8.7919393632       -9.4819115190
 H        -6.4225921675       11.2443487497      -11.2346955217
 H        -7.7996023572       10.4443457630      -10.1158850299
 H        -6.9747132478        9.6300856124      -11.3550455100
 H        -4.5340660692       11.3732238972       -8.2124802725
 H        -6.1524529427       12.1404620300       -8.9978204447
 H        -4.7337934254       11.9900736051       -9.8979858878
 H        -3.6289903056        7.7164840358       -4.8285106259
 H        -4.1435492406        6.5657900267       -3.6647711404
 H        -5.3253576842        7.8196774296       -4.4483891079
 H        -2.7877550891        5.9526823576       -6.1439784687
 H        -3.5693004087        4.4217760129       -6.6457421466
 H        -3.2794176881        4.6331288239       -4.8236916291
 H        -7.4366061669        0.0848986394       -2.0877551507
 H        -7.5776697152        0.0530755303       -0.3746830110
 H        -6.3991274278        1.2503305837       -1.0297312686
 H        -9.4631182762        2.5604626650       -3.2953803791
 H       -10.2681122715        2.7050946595       -1.6736898987
 H       -10.0000736633        1.1576168371       -2.2619101429
 H        -8.2546792905        2.9407079500        5.3289026282
 H        -9.2001529039        1.7583955287        6.0352458397
 H        -9.8732337822        3.1431516629        5.4031763559
 H        -7.2061614697        1.8211478412        3.4366218265
 H        -8.0393746816        1.1274556874        2.1337734545
 H        -7.8243566232        0.1987576768        3.5200310859
 H       -11.8213768737        1.9087454804        8.3095479394
 H       -13.5112142672        1.9109824866        9.0483702529
 H       -13.3133179030        2.3355053924        7.3855247305
 H       -12.8431178136       -1.6778395558        8.5763246088
 H       -12.5881895155       -0.2345075029        9.7206086600
 H       -11.2833257765       -0.7170606109        8.6096783749
 H       -17.5195587884        3.1716559852        2.4217828432
 H       -16.6522952504        3.6215107123        3.8882545414
 H       -18.4824767854        3.2244399898        3.9207094517
 H       -18.9866799897        1.2173447511        4.6010502868
 H       -18.2012242398       -0.1902122449        3.9585265793
 H       -18.9646697286        0.8144548897        2.7359145086
 Na      -13.3058982669        1.7334774793        3.1934797205
