117

 C       -17.2151475362        0.8179699464        1.1385667046
 C       -16.3841879163        1.2453962032        2.3478886420
 O       -15.1842012378        1.5376676397        2.4070853318
 C       -17.2779830139        1.5783811979        3.6316737612
 C       -16.3173053601        2.1407986420        4.8163495044
 O       -15.5704725208        3.0183147048        4.4340057990
 C       -16.3076033187        1.4617665310        6.0921817360
 C       -15.1662618608        1.6042994711        7.0907409939
 C       -14.5794168963        0.1868959002        7.3302213800
 O       -15.0903054983       -0.8175783957        6.8059670899
 C       -13.1537497837        0.0306565952        7.9997519622
 C       -12.2910998396        0.3385018664        6.6761566730
 O       -12.3879051137        1.4437515553        6.0942303858
 C       -11.6659920395       -0.8923368201        5.9171001422
 C       -10.2636225843       -0.5722908521        5.2210833216
 C       -10.3527391305        0.3789197591        3.9963672814
 O       -11.3268794178        0.3529655519        3.2279908494
 C        -9.2891445107        1.5311279134        3.8724051694
 C        -9.9771777847        2.7331489516        3.0787664038
 O       -11.1955305434        2.6628788284        3.0210381270
 C        -9.3097461804        4.0089655421        2.4881919618
 C        -8.5912881632        3.9488409460        1.0798236924
 C        -9.2210861758        2.9402458060        0.0505986989
 O       -10.2726415693        2.4316545191        0.1973387129
 C        -8.2713689582        2.5228476828       -1.2497656878
 C        -7.6186827082        3.8265877010       -1.8569732637
 O        -7.8086368287        4.9130890092       -1.3995824246
 C        -6.7573801194        3.5103073486       -3.0277126075
 C        -5.7046684996        4.5448841675       -3.4606361845
 C        -5.8130463713        4.7272816678       -5.0028580911
 O        -6.8182377262        4.5147050396       -5.5894321174
 C        -4.5773478007        5.1551200217       -5.8137969319
 C        -4.7885137800        5.9002053212       -7.2084943507
 O        -3.8476037285        6.0188111829       -8.0236320601
 C        -6.1871221154        6.4549559751       -7.5504688537
 C        -6.2806202708        7.2784436949       -8.8435731707
 C        -6.1750329035        8.9432977502       -8.4872750563
 O        -6.4667532881        9.2903790205       -7.3737154845
 C        -5.7160376949        9.7530828832       -9.8606875419
 C        -4.2228106103        9.3304848159      -10.2297365259
 O        -3.9278821975        8.9787392646      -11.3725520787
 C        -3.1516695303        9.2878611554       -9.1577400468
 C        -6.6620241682        9.4822123782      -10.9633130507
 C        -5.6178527250       11.2576775730       -9.3721955727
 C        -3.4833710395        5.8795662992       -4.9067076502
 C        -3.8887491490        3.7818790497       -6.2756039185
 C        -7.0554126322        1.6407325015       -0.5971878980
 C        -9.1753496192        1.5578999827       -2.1612165079
 C        -8.7284557362        2.1595642349        5.2518462798
 C        -7.9967158116        0.8744816106        3.0247302549
 C       -13.0167797178        1.2335711140        9.0224024064
 C       -12.9946881145       -1.3518704888        8.6301105364
 C       -18.2391919715        2.7690660094        3.2385079731
 C       -18.0999984497        0.3114207081        3.9903152787
 H       -16.9660063509        1.6024804038        0.3747378113
 H       -18.3157223703        0.7843045713        1.0512808741
 H       -16.7770787158       -0.1470261760        0.6606922753
 H       -16.3120225078        0.4217057797        5.8309364479
 H       -17.2264306997        1.7095829484        6.6061309157
 H       -15.5459494151        1.9794079147        7.9810268028
 H       -14.5440576618        2.4290699222        6.7690242519
 H       -12.3941908109       -1.3334112098        5.3130679188
 H       -11.5509251631       -1.7469047248        6.6081626062
 H        -9.7995377231       -1.5101335249        4.7889121705
 H        -9.6812220039       -0.0164064007        5.9582609776
 H        -8.3608176689        4.3141598241        3.0982741975
 H        -9.9991862194        4.8167053254        2.6857739125
 H        -7.5393000321        3.7863494587        1.3969096435
 H        -8.5333544053        5.0299574631        0.7390136638
 H        -7.3593515725        3.5639668923       -3.9564441505
 H        -6.4007867651        2.4548933440       -2.9984497448
 H        -4.6687737870        4.2120313125       -3.1974706625
 H        -5.8667708709        5.5777016482       -3.0037312432
 H        -6.7102798326        6.9170731736       -6.6690948093
 H        -6.7004560529        5.5103681965       -7.7623000229
 H        -7.0472466929        7.0558916443       -9.5221240590
 H        -5.3480079808        7.1152415550       -9.4631568272
 H        -3.5147405356        9.1181760488       -8.2121127646
 H        -2.5932860385       10.1667204183       -9.1486073279
 H        -2.4541787822        8.4039660490       -9.3457594920
 H        -6.8646551956       10.2829216573      -11.6610593930
 H        -7.6347760195        9.2834001240      -10.7377807264
 H        -6.1758485962        8.6341594424      -11.4655503129
 H        -4.6100723593       11.4447398466       -8.7901383495
 H        -6.4170465916       11.3879714901       -8.6941279122
 H        -5.6949666970       11.7819794680      -10.3114058091
 H        -2.6038605898        6.1418763562       -5.4996000770
 H        -3.2231659317        5.2155387730       -4.0748579633
 H        -3.9617775020        6.7309188887       -4.2388227929
 H        -4.7637724232        3.1047478517       -6.4654315893
 H        -3.3638609968        3.3587860311       -5.3871924279
 H        -3.2924845097        3.9948288533       -7.1658927030
 H        -6.4729854084        0.9005145378       -1.0847189353
 H        -7.4230648452        1.2051891776        0.3871264728
 H        -6.3935193756        2.4234470098       -0.2143987290
 H        -8.9483872321        0.4837722322       -2.1474997425
 H        -8.9250024522        1.8535086215       -3.1744205547
 H       -10.2254891281        1.6918014843       -1.8705667240
 H        -7.9211345620        2.8914803319        4.9797411588
 H        -8.3384134087        1.6151638840        6.1064895813
 H        -9.4655415892        2.7743139658        5.7447204760
 H        -6.9980710963        1.3559744708        3.0137533863
 H        -8.2093563079        0.6778302051        1.9143627621
 H        -7.7527025549       -0.0760878997        3.5577484185
 H       -12.1739997893        1.0210592964        9.7256672556
 H       -13.8307919190        1.2453486355        9.6781580848
 H       -12.8006701975        2.1311147167        8.4379438220
 H       -13.2644045401       -2.1605073682        7.9932428234
 H       -13.6889906602       -1.3469279987        9.5501304102
 H       -11.9809436551       -1.4789269533        8.9351989549
 H       -19.2422490714        2.4530272901        3.3177349725
 H       -18.1527070185        3.0007795754        2.1756895044
 H       -18.1067648707        3.7560315343        3.8249307358
 H       -18.6928277368        0.4809840650        4.9192802899
 H       -17.4612309224       -0.5341547361        3.9075036805
 H       -18.9216718688        0.2992364636        3.2192542389
 Na      -13.2487118734        2.2251878052        3.7130824280
