117

 C       -16.4904230228        1.6022791351        1.0756379767
 C       -15.8310867895        1.6038239914        2.3537769373
 O       -14.6192916449        1.3656823722        2.5200860643
 C       -16.7512867931        1.8253821736        3.6202057858
 C       -15.8751290724        2.4815308863        4.7548677783
 O       -14.8890196699        3.0651307691        4.5200036241
 C       -16.4461650261        2.3024741870        6.2280920569
 C       -15.2943233210        1.9981352928        7.3394303868
 C       -14.8601358306        0.5863095163        7.1416536328
 O       -15.5627303252       -0.2060364096        6.6317176359
 C       -13.4585522778        0.1152531060        7.8140577909
 C       -12.2728221050        0.2343287126        6.6206400258
 O       -11.9395546134        1.3142338259        6.2354858492
 C       -11.5747990642       -1.0456949412        6.1171227906
 C       -10.3462837627       -0.6739659821        5.2035696084
 C       -10.8428517879        0.4139194171        4.1816244443
 O       -11.8922203511        0.2349578394        3.5601861940
 C        -9.8392541036        1.6639286326        3.9337047704
 C       -10.5876502815        2.9728115086        3.3130902306
 O       -11.7475481070        3.2177827453        3.4037277513
 C        -9.6998628164        4.3085313559        2.7027601770
 C        -8.5382262618        4.1333048645        1.6934896765
 C        -9.0705985902        3.3475282518        0.3345680373
 O       -10.2629633156        3.0106257467        0.5457653853
 C        -8.1037459319        2.7565991520       -0.8008389412
 C        -7.7365952504        4.0714478524       -1.8440261495
 O        -8.1614195055        5.2045273289       -1.6573779314
 C        -6.8996051939        3.6658972740       -3.1446440250
 C        -6.4919667238        4.7984827893       -4.1682074431
 C        -5.9129588158        4.2207249775       -5.4751477813
 O        -6.6434247248        3.4361513852       -6.0829065218
 C        -4.3684914403        4.5189328390       -5.9617129334
 C        -4.4548185684        5.4627312918       -7.2093940315
 O        -3.4349806607        5.5828525995       -7.9457965131
 C        -5.8013172349        5.9336583909       -7.7403715675
 C        -5.8701504404        6.8223640069       -9.0309243614
 C        -6.0740920432        8.4107974637       -8.9031409189
 O        -6.4911374328        8.9125394330       -7.8235113284
 C        -5.6148922889        9.4104884750      -10.0156440349
 C        -4.1300089416        9.3527799915      -10.3580382082
 O        -3.7390653293        9.2084607574      -11.4531794416
 C        -3.0834561841        9.4892981359       -9.1767448100
 C        -6.5211725824        9.3075610430      -11.3327463775
 C        -5.7708981802       10.9261108288       -9.5489048530
 C        -3.5373122537        5.1067410415       -4.8267127774
 C        -3.9352093036        3.1535420166       -6.5780770511
 C        -6.7127908543        2.2262429175       -0.3462648171
 C        -8.9461132382        1.8121378799       -1.7771591291
 C        -9.0459368694        2.1322568749        5.2097836597
 C        -8.9409194088        0.8640948453        2.9545636005
 C       -13.0897439454        1.0837913279        8.9227814705
 C       -13.6622771362       -1.3893284965        8.2495007700
 C       -17.9438187430        2.8740308362        3.3490911449
 C       -17.4562752677        0.4659267370        4.0400976113
 H       -16.8224651807        2.6469419917        0.7808744391
 H       -17.4892035711        1.0536394939        1.0502307215
 H       -15.8275906082        1.3273962854        0.3256602808
 H       -17.2636246420        1.6641642194        6.3690448909
 H       -16.8733004882        3.2843376534        6.4619306818
 H       -15.6911415037        2.2072309921        8.3667132018
 H       -14.5124717734        2.6711480353        7.1871149189
 H       -12.2581592573       -1.6465561798        5.5110947536
 H       -11.3174873163       -1.6878724232        6.9306786542
 H        -9.9799074335       -1.6236215015        4.6958859074
 H        -9.5102843455       -0.1583156445        5.6933492239
 H        -9.5998193448        4.8546571541        3.6608003147
 H       -10.5153440918        5.0085997951        2.2262087141
 H        -8.0102222768        3.1989429769        2.0332579289
 H        -7.9476275191        5.0417709632        1.6032087076
 H        -7.4409964649        2.8377170854       -3.6022596077
 H        -5.9255852471        3.1420934651       -2.7455849624
 H        -5.9164637929        5.6283033588       -3.6138526444
 H        -7.4795739525        5.2658581817       -4.3372071564
 H        -6.0135367273        6.6117205829       -6.8536203114
 H        -6.5653757455        5.1776443027       -7.7350921938
 H        -6.7612060449        6.4515264975       -9.5730794706
 H        -5.0509309306        6.7185955633       -9.7650965245
 H        -3.3863221622       10.0649100699       -8.3008677527
 H        -2.0956090281        9.8251507176       -9.4852237880
 H        -3.0126208613        8.5738182640       -8.7588527657
 H        -6.2909744116        9.8936723240      -12.1478741060
 H        -7.5660386006        9.6505921615      -11.0474095153
 H        -6.7080964815        8.3319168327      -11.7087279693
 H        -5.4786852760       10.9137734974       -8.5899318182
 H        -6.8876241891       11.1416007924       -9.7047209520
 H        -5.0202264637       11.5168204876      -10.1382354358
 H        -2.4009009503        5.2019078583       -5.0586066694
 H        -3.6072804444        4.3338331397       -3.9612708215
 H        -3.8434423754        6.1081112480       -4.5174306719
 H        -4.5661560484        3.1008872121       -7.4563838116
 H        -4.0113502609        2.3364816478       -5.8345826213
 H        -2.8728813406        3.2691964492       -6.9893268048
 H        -6.0494047320        1.8244449005       -1.1666307562
 H        -6.9110516681        1.4460616669        0.3520162417
 H        -6.0219974086        2.8936705863        0.1539349749
 H       -10.0046235344        1.6606868961       -1.4714386128
 H        -8.4572243686        0.8453091012       -1.9099701027
 H        -8.9699521769        2.2357289116       -2.8193693977
 H        -8.2034071703        2.7842195102        5.1043751380
 H        -8.5392100205        1.2511437392        5.6709377353
 H        -9.8051334866        2.4219826254        5.9908617857
 H        -7.8245980731        0.9885876668        3.0855739181
 H        -9.3530387612        1.0403418900        1.9387252235
 H        -9.1082297645       -0.2552379425        3.0132310913
 H       -12.3980445258        0.7936750595        9.6453342861
 H       -14.0939512987        1.4051350404        9.3700251230
 H       -12.7217467623        1.9746547796        8.3957420727
 H       -14.3886224482       -1.8426793648        7.5516500365
 H       -14.1430519043       -1.5079247543        9.1182661672
 H       -12.7370780779       -1.9906765390        8.2861349083
 H       -18.3537435511        3.3242934444        4.2763671443
 H       -18.8854298996        2.4247941447        2.9908556098
 H       -17.7298001958        3.5724105076        2.6184328130
 H       -18.0067470311        0.5161143544        4.9831491255
 H       -16.5684342007       -0.1209813949        4.3013456054
 H       -17.8697148847        0.1316286526        3.1253656097
 Na      -13.2993784828        1.6173875276        4.3028918351
