117

 C       -15.7837361065        3.2670772121        1.3115276337
 C       -15.9798132598        2.3158327284        2.5210231532
 O       -14.9528957416        1.5284040820        2.7177891827
 C       -16.9905965540        2.5095209086        3.6680561975
 C       -16.0258648732        2.8237935282        4.9076212159
 O       -14.8519918745        3.1311105572        4.7740814518
 C       -16.6190595715        2.6175755291        6.3567053796
 C       -15.5449802154        2.2399755706        7.3058282046
 C       -14.9050970874        0.9065767360        6.8219301453
 O       -15.2659201355        0.4967051745        5.7000975953
 C       -13.8211535571        0.2680635022        7.6690916363
 C       -12.2951724126        0.5099544106        6.9032546169
 O       -11.9767210812        1.6809254897        6.9562914923
 C       -11.6145382529       -0.5269490220        6.0997895069
 C       -10.3618492588       -0.0955697910        5.4884383068
 C       -10.4961927181        0.6633300173        4.1423114171
 O       -11.5333366168        0.4983110413        3.4418707138
 C        -9.5279570763        1.7493575373        3.7172784639
 C       -10.4368213090        2.9657535799        3.1809689251
 O       -11.6439097929        3.0129877101        3.2861954219
 C        -9.6892716107        4.1626687500        2.5289050867
 C        -8.3179920482        3.9161554060        1.8333355209
 C        -8.7520616675        3.4136011264        0.3776208661
 O        -9.8154330900        3.7993359081       -0.0702000656
 C        -7.7422085723        2.8534274556       -0.7865371467
 C        -7.8541284905        3.9908660077       -2.0006448912
 O        -8.4306237016        4.9909782087       -1.8328315489
 C        -6.9798026906        3.6132849387       -3.2651633110
 C        -7.3368809693        4.4581796293       -4.5594799302
 C        -6.5494019563        3.9092010424       -5.7581453776
 O        -7.1053779340        3.1089828254       -6.5717623591
 C        -4.8952223532        3.7963907644       -5.7541908436
 C        -4.5701778681        4.8995492771       -6.8796813532
 O        -3.5434822047        5.4163654656       -6.8923504787
 C        -5.6612837808        5.2082449030       -7.8814768188
 C        -5.1620945158        6.0689843948       -9.1851325500
 C        -5.6533967616        7.5324210035       -8.8234521203
 O        -6.1714745038        7.7499734290       -7.7272515002
 C        -5.5106115785        8.5815308190       -9.9854701113
 C        -3.9867324312        9.1002503531      -10.3189506707
 O        -3.4433469747        8.8673988686      -11.3987073714
 C        -3.2378141505        9.7175302831       -9.2331056460
 C        -6.0416432783        8.2884200451      -11.4233244756
 C        -6.3290942742        9.8903624487       -9.5985243798
 C        -4.2184758863        4.3637603091       -4.4132772084
 C        -4.4903708052        2.4446897089       -6.1783138313
 C        -6.3163100441        2.8203278862       -0.4940821925
 C        -8.2682908697        1.6015438331       -1.4464871088
 C        -8.6893881201        2.3229622984        4.8785963904
 C        -8.5300083776        1.1380261427        2.6186152030
 C       -13.6990400041        0.9752253492        9.0020021382
 C       -14.1226321213       -1.2768450974        7.9838225577
 C       -18.0059230877        3.6569920002        3.4113361696
 C       -17.7650268682        1.1716141231        3.8749866990
 H       -15.3967430587        4.2588246950        1.6210835430
 H       -16.6476135072        3.5350780258        0.6701575936
 H       -14.9902430766        2.8962134593        0.5116329619
 H       -17.3878554974        1.7732879884        6.4761130018
 H       -17.3131348834        3.3828731038        6.6841149315
 H       -16.0045360605        2.0828993590        8.3145151249
 H       -14.7583166927        2.9253252954        7.3804595480
 H       -12.3252445265       -0.6150995909        5.2351003857
 H       -11.4172325185       -1.4305830556        6.5613664442
 H        -9.5722587089       -0.8570515552        5.5235136185
 H        -9.8729977548        0.6347437978        6.1800345921
 H        -9.6205384556        4.8855861844        3.2870780241
 H       -10.3084448148        4.6419677205        1.7572239936
 H        -7.4885254079        3.3625659866        2.3192708268
 H        -7.9754525453        4.9132511420        1.5538246549
 H        -7.2030171011        2.5833062182       -3.5606681549
 H        -5.9329694938        3.6679588967       -2.9879623368
 H        -7.0621454902        5.4583508276       -4.3213287459
 H        -8.3976302892        4.4049812150       -4.8351858066
 H        -6.4081499812        5.7948409759       -7.3655563785
 H        -6.1279177433        4.3516959452       -8.2828973601
 H        -5.6714715993        5.5313039624      -10.0232577614
 H        -4.0698763906        6.0713632998       -9.3874522919
 H        -2.5174064424       10.4069521066       -9.5698097301
 H        -2.8613709807        8.9445418316       -8.6025590770
 H        -3.9467292303       10.3031873800       -8.4970079385
 H        -5.9863456384        9.0142012254      -12.2846684222
 H        -7.0345792325        7.8801878858      -11.4150459487
 H        -5.5827781117        7.3066724040      -11.8711559894
 H        -6.5789667265        9.7332171982       -8.4284696128
 H        -7.2996063894        9.9188704943      -10.0970819798
 H        -5.7197266033       10.6834557271       -9.9164805224
 H        -3.2330408024        4.5426669675       -4.6271798152
 H        -4.1337925995        3.8046747148       -3.4645268581
 H        -4.6180618423        5.4191523916       -4.2479451061
 H        -4.9945380468        2.0784735763       -7.0383220473
 H        -4.5652074394        1.6942833954       -5.4430746843
 H        -3.4542795699        2.6407998890       -6.3164875702
 H        -5.7375485293        2.1539901901       -1.1202166018
 H        -6.1020763557        2.3682165705        0.5596187219
 H        -6.0486202306        3.8815542959       -0.3993303759
 H        -8.5358275588        0.7954458029       -0.8094510771
 H        -7.4257507111        1.0905515108       -1.9547925395
 H        -9.0474069466        1.7539491680       -2.1590299026
 H        -7.6885038768        1.9295376721        4.7904913412
 H        -9.1920755241        2.1760703753        5.7992278421
 H        -8.7617168653        3.4190571750        4.8640864297
 H        -7.5385449026        1.2340167056        2.8707462124
 H        -8.6248239136        1.4820607979        1.6594717483
 H        -8.7253831171        0.0667305149        2.6302710005
 H       -13.0367024285        0.4059301970        9.7323080107
 H       -14.6761819567        1.0150736471        9.5086624232
 H       -13.4003026920        1.9923130362        8.9111509823
 H       -14.1540469505       -1.8597751684        7.0808166347
 H       -15.1430259100       -1.4804175829        8.5645926146
 H       -13.3277010060       -1.7956430896        8.5750537825
 H       -18.7229490831        3.8230311185        4.2348475310
 H       -18.5711224757        3.5411252413        2.5107575217
 H       -17.5104910785        4.6122722856        3.4391384684
 H       -18.6960284981        1.3443141255        4.3137641212
 H       -17.0587513907        0.4068404300        4.2670252363
 H       -18.0205811172        0.9084291389        2.8314397944
 Na      -13.2595871470        1.8376690948        4.5685630483
