117

 C       -16.1668355066        3.6802710066        1.0272876039
 C       -15.9913774550        2.9639640503        2.2979783992
 O       -15.0478524619        2.2827048159        2.4631244382
 C       -16.9588892195        3.1827432992        3.6394467753
 C       -16.3473443151        3.0284437789        5.1796398784
 O       -15.3421713579        3.6469687612        5.3621835892
 C       -17.0881531689        2.0229641465        6.1202360738
 C       -16.1065793735        1.6753947258        7.2963421696
 C       -14.7106994900        1.0878045559        6.7443477761
 O       -14.4513120688        1.0631552551        5.5590908533
 C       -13.7704121735        0.4003963531        7.7891916630
 C       -12.4355904377        0.8162124340        7.1872621496
 O       -12.1584574934        1.9780918195        6.8679699211
 C       -11.4265890450       -0.3166163130        6.6145666389
 C       -10.1264485993        0.2890523173        6.0582357239
 C       -10.4728244930        0.8425831847        4.5966018955
 O       -11.5024643520        0.5744441456        4.1002997688
 C        -9.3806968988        1.6923426105        3.8600623177
 C       -10.1531751612        3.0595103357        3.4492252732
 O       -11.3473655607        3.1057959811        3.3149713117
 C        -9.3866691136        4.2665908935        3.1318599500
 C        -8.5509476654        4.2040898072        1.8137421260
 C        -9.0599206500        3.4686120457        0.4473345534
 O       -10.2158111869        3.2136567031        0.3618550762
 C        -8.0393623286        2.9946162488       -0.5619965505
 C        -8.2119628172        3.6525610939       -2.0318702236
 O        -8.6179983075        4.8118711675       -2.0039791447
 C        -7.4317550540        3.1123042953       -3.2523891583
 C        -6.7879041882        4.1871246279       -4.2281018206
 C        -6.3871379093        3.6592275572       -5.7386238448
 O        -7.1619406999        3.3638668316       -6.5745410577
 C        -4.8037285508        3.7042473125       -6.0911883520
 C        -4.3756822288        4.7360548681       -7.2392060374
 O        -3.5389485573        5.6580032666       -7.0392594233
 C        -5.0576891693        4.5104617695       -8.6591057014
 C        -4.8172296817        5.8155745209       -9.5185957143
 C        -5.4813442098        7.0325359140       -9.0254658469
 O        -5.8134077836        7.3010423456       -7.8965110190
 C        -5.6386651891        8.2725309624      -10.1470171434
 C        -4.1599442610        8.6841373922      -10.0961633695
 O        -3.2630955854        8.1400618943      -10.7196654782
 C        -3.6208202342        9.7291669748       -9.0050903271
 C        -5.8574545751        7.6342940246      -11.5131322772
 C        -6.5560685559        9.3502544502       -9.5944660156
 C        -3.8090956712        4.0713711360       -4.9943244105
 C        -4.6623281663        2.3147823165       -6.7580064644
 C        -6.4488426108        3.2285756188       -0.3752694668
 C        -8.1651033174        1.3891021072       -0.7328383162
 C        -8.0522982145        2.0611082842        4.5954130006
 C        -9.1147718761        1.0168663050        2.5026010145
 C       -13.8853111146        0.9464748632        9.2011719041
 C       -13.9331157758       -1.1527587814        7.7738600770
 C       -17.6071339556        4.6156964088        3.6061630847
 C       -17.9977030316        2.0129621257        3.5373472257
 H       -16.4147634357        4.8094332962        1.1570474764
 H       -17.0881435289        3.4199750356        0.3391246780
 H       -15.2815664115        3.5259532781        0.4568040231
 H       -17.3460553189        1.0976544008        5.6251437069
 H       -17.9914188938        2.4266804362        6.5670045866
 H       -16.5424238133        0.8868131899        7.7751468414
 H       -15.9244557477        2.5216044543        8.0047149662
 H       -11.8881769991       -0.7056762325        5.7279947251
 H       -11.1144852682       -1.0932151986        7.3044185825
 H        -9.2354468910       -0.3709560449        6.0715725658
 H        -9.6686159063        1.0681658177        6.7401491182
 H        -8.6347724724        4.5226772023        3.9170899763
 H       -10.1160836218        4.9963578778        3.1074051077
 H        -7.5482223588        4.0194700947        2.1835754545
 H        -8.2769177974        5.2001724006        1.4168415485
 H        -8.0687125674        2.4402256649       -3.8763812935
 H        -6.7387498684        2.4971797748       -2.7293911469
 H        -5.9596720569        4.4795426903       -3.5813280209
 H        -7.4995414067        5.0061186482       -4.2905222694
 H        -6.0901433578        4.4699903762       -8.6399795014
 H        -4.6024814300        3.5565069353       -8.9360238338
 H        -5.1553155353        5.7163032279      -10.5896091579
 H        -3.7498573650        6.0507260767       -9.5588140746
 H        -2.5539232965        9.3726680495       -8.8954762999
 H        -4.0638197148       10.0039617168       -8.0213152195
 H        -3.5268128221       10.6245275290       -9.4840685938
 H        -6.3341536633        8.2376612969      -12.2812579715
 H        -6.8082317586        6.9348916896      -11.4183881014
 H        -5.1293171784        7.0177595522      -11.9977394842
 H        -5.9235221405        9.9178709863       -9.0073271712
 H        -7.4003308883        8.8866456564       -9.0106181198
 H        -6.9532611672        9.9090021486      -10.5476629194
 H        -2.7932175646        3.6559072428       -5.2658128393
 H        -4.0645784175        3.5320695593       -4.1124495279
 H        -3.7968968670        5.0532821000       -4.5847047832
 H        -5.3843801073        2.4623383523       -7.5224594357
 H        -4.9411356271        1.4487943592       -6.2051578360
 H        -3.7777009593        2.2093464553       -7.2907302807
 H        -5.8548527416        2.5798944193       -1.0999138415
 H        -6.3616223276        3.1529760820        0.6910566534
 H        -6.0907589747        4.2425257097       -0.7689599642
 H        -7.6931243241        0.8030426285        0.0541810540
 H        -7.7976323178        1.1286851821       -1.6957862569
 H        -9.1650512110        0.9916078876       -0.5651592058
 H        -7.8654321010        1.3597823040        5.3909230129
 H        -8.2450669811        3.0647450134        4.9605409994
 H        -7.3890124477        2.0572574157        3.7957568290
 H        -9.1153181780        1.7540735157        1.7521500293
 H        -9.8180738190        0.2597605044        2.1922847118
 H        -8.1749023331        0.6318151871        2.5075947614
 H       -13.4153724482        0.3851312038        9.9830109240
 H       -14.8941726270        1.0761196553        9.5662405964
 H       -13.3763902770        1.9550064889        9.2273826640
 H       -14.3540123846       -1.6571728214        6.7850078395
 H       -14.6582997887       -1.3852326381        8.4864130063
 H       -12.9566992299       -1.6863478963        7.9925661059
 H       -17.7112464619        4.8485352548        4.6400232476
 H       -18.6055267984        4.7063121271        3.2068147561
 H       -16.9982872967        5.4352788704        3.1222479262
 H       -18.8020518679        2.1667862550        4.2887131986
 H       -17.3928234263        1.1695358452        3.6158756139
 H       -18.4773212434        1.8619255766        2.5518001656
 Na      -13.3430524155        1.8443823693        3.5638019525
