117

 C       -16.3758732212        3.8830585944        1.1001855085
 C       -16.0285415990        3.1550916149        2.4445665481
 O       -15.1107462441        2.4092333887        2.3638034532
 C       -17.0592898827        3.2735828309        3.6391783059
 C       -16.2921637308        2.9721464428        4.9787040111
 O       -15.4689401036        3.7725726093        5.3819638009
 C       -16.9985903057        2.0585339761        5.8514703862
 C       -16.0321055176        1.5893891642        7.0584831105
 C       -14.6969735057        1.0081019196        6.6792642053
 O       -14.3006203979        1.0273300071        5.5442029936
 C       -13.7135125662        0.4658918318        7.7902727133
 C       -12.3030193780        0.7802304462        7.2193681326
 O       -12.1567325857        1.9321869040        6.8864434128
 C       -11.2397649690       -0.2442426805        6.8543789114
 C       -10.0695821976        0.4892762330        6.2076642389
 C       -10.3291535275        0.8180548036        4.7293759537
 O       -11.3495575614        0.4199238531        4.1798109400
 C        -9.3490854328        1.7004674404        3.8594260898
 C       -10.1035678830        3.0652662119        3.4121730159
 O       -11.3501629821        3.1490975945        3.4245228737
 C        -9.2557563782        4.2606717068        2.9858823194
 C        -8.4745598174        4.1560903962        1.7421707447
 C        -9.1231273601        3.3685648500        0.4527201513
 O       -10.3345161193        3.0904938821        0.3018729149
 C        -7.9309047189        2.9799765697       -0.5906523325
 C        -8.1498201751        3.8698319044       -1.9847223225
 O        -8.7538087893        4.8670440335       -2.0710357915
 C        -7.5630650133        3.1085992869       -3.3426840579
 C        -6.7963171727        4.1949821312       -4.2119320155
 C        -6.3073350637        3.7460493519       -5.5841023524
 O        -7.1503618402        3.4978091461       -6.3918961900
 C        -4.7500192695        3.6146779497       -6.1768908372
 C        -4.4323247640        4.7811315468       -7.1568472240
 O        -3.5841152990        5.6290048762       -7.0212392964
 C        -4.9956030246        4.4591681210       -8.6530652127
 C        -4.8402672832        5.6944993605       -9.6158771108
 C        -5.4604438128        6.9807281757       -9.1690520539
 O        -5.8776906498        7.1013340820       -7.9719984391
 C        -5.6029313964        8.1672233974      -10.0573052592
 C        -4.0017848440        8.6455495547      -10.0611985778
 O        -3.2716130809        7.9879622855      -10.7193069015
 C        -3.5559051396        9.7456921909       -9.0488664250
 C        -5.8197683603        7.7833843832      -11.6079838472
 C        -6.7590399138        9.0801066421       -9.5834111564
 C        -3.7839439148        3.7392606561       -5.0380455768
 C        -4.5276331695        2.2231330660       -6.7887407315
 C        -6.5238703185        3.2699143793       -0.2277796181
 C        -8.1175266450        1.4253667399       -0.6095420868
 C        -8.0202272411        2.0823299311        4.5356890323
 C        -9.2281419559        0.7639124438        2.5027302461
 C       -13.9513327159        1.0144196702        9.2759227233
 C       -14.0193566753       -1.0880803868        7.7340419795
 C       -17.5791684651        4.7386103154        3.7790327083
 C       -18.2829129512        2.2442496857        3.2555238880
 H       -17.0803349506        4.6821360973        1.0655511526
 H       -17.0798839728        3.1145205487        0.6425915821
 H       -15.5348398713        3.9957446094        0.3511201458
 H       -17.3667160950        1.2084731761        5.4131312517
 H       -17.8069893319        2.6310607845        6.3086160731
 H       -16.6197074354        0.9139107384        7.6605722920
 H       -15.6254209184        2.3599654263        7.6776087741
 H       -11.5919174866       -0.9650090110        6.1846988300
 H       -10.8175124413       -0.6652170814        7.7927435346
 H        -9.0821057119       -0.0727271516        6.3294701653
 H        -9.7583303173        1.3551745922        6.8025177323
 H        -8.4421485544        4.6211196951        3.7004861895
 H       -10.0465238030        5.0758582136        2.9082700108
 H        -7.5459919046        3.7053765504        2.1126601911
 H        -7.9232286827        5.0443562488        1.3846999896
 H        -8.3701571346        2.6594885340       -3.9531303316
 H        -6.9309339657        2.2585801482       -2.8934004567
 H        -6.0547758539        4.6199774118       -3.4360683428
 H        -7.5853310121        4.9435167040       -4.3969132302
 H        -6.0786288264        4.2989636673       -8.7436075153
 H        -4.4439372774        3.5901087002       -8.8158855519
 H        -5.1759235853        5.4525685671      -10.5968168678
 H        -3.7604455438        5.9446979050       -9.7215332223
 H        -2.5859809535        9.5995362064       -8.7216880735
 H        -4.1874272125        9.6911012190       -8.2152268979
 H        -3.6895260844       10.7801973590       -9.4214278301
 H        -6.2410643976        8.5464317399      -12.1708870034
 H        -6.5382908206        7.0351404997      -11.8071726401
 H        -4.9241019925        7.3969202973      -12.2036586428
 H        -6.4273730209        9.6121679117       -8.6445191047
 H        -7.5101243566        8.2547918687       -9.3483344980
 H        -7.1434209832        9.6734762827      -10.3074795350
 H        -2.7457497789        3.4314323712       -5.3706581254
 H        -4.0512439187        3.0130500031       -4.1870577575
 H        -3.7538364445        4.6279483317       -4.4514146369
 H        -5.2310343601        2.0097624246       -7.5268585566
 H        -4.5809917423        1.4670274158       -6.0190158271
 H        -3.6022043827        2.2194217722       -7.3894342687
 H        -5.8741428738        2.8153213199       -1.0685307779
 H        -6.4681344553        3.0141285884        0.8472176958
 H        -6.2192672977        4.3184057951       -0.4320902676
 H        -7.8040573686        1.0660464207        0.3661268386
 H        -7.7024804730        0.8992050950       -1.4081878046
 H        -9.1450172913        1.1036411829       -0.4773866345
 H        -7.6013293960        1.1489911011        4.7673537569
 H        -8.3312665270        2.5718258229        5.4292190048
 H        -7.4672871992        2.6514450055        3.7642151783
 H        -9.1710613274        1.3503539449        1.6443359881
 H        -9.9857020130        0.0934501608        2.4068890669
 H        -8.3036673490        0.1872659849        2.5660046373
 H       -13.4098410810        0.6724302079       10.0952572912
 H       -15.0454976840        0.9976738716        9.5570485242
 H       -13.6812145268        2.0968543154        9.2185886624
 H       -14.0018467817       -1.6424427470        6.7921408983
 H       -15.0182581354       -1.1848921190        8.1452598980
 H       -13.2913208188       -1.6192305130        8.4350434181
 H       -17.7355398347        4.9123682846        4.8819048889
 H       -18.5469913257        4.9796256183        3.2529644445
 H       -16.8793210211        5.4095141814        3.3533715962
 H       -19.0738070309        2.6507951654        3.9519293506
 H       -17.9652984481        1.1927677884        3.4043720816
 H       -18.6141027398        2.2683333655        2.2231034305
 Na      -13.4059799726        1.9865086958        3.6360939430
