117

 C       -16.7313124803        4.1985924988        0.9836871402
 C       -16.2923716834        3.5644390366        2.2751917783
 O       -15.2820828079        2.8177538963        2.2349900337
 C       -17.3078473038        3.6460641414        3.5180793720
 C       -16.5131949325        3.1065091837        4.8209687792
 O       -15.4526531930        3.5990067697        5.0919867918
 C       -16.8201521576        1.7785866854        5.5835104853
 C       -16.0110401891        1.6054707818        6.8737792213
 C       -14.5902266679        0.9594864984        6.5399418259
 O       -14.3889313078        0.8567877701        5.3624755868
 C       -13.5823934166        0.3914731803        7.7419705771
 C       -12.1780346224        0.9352526874        7.3503085147
 O       -12.0689514471        2.1122228933        7.0875996142
 C       -10.8791781526        0.0906068485        7.3653026059
 C        -9.7924122532        0.6948756525        6.3669338732
 C       -10.3466350590        0.8167875572        4.9517382936
 O       -11.4039243957        0.2797583814        4.6351669761
 C        -9.4437216413        1.5307622750        3.9111819587
 C       -10.1948523064        2.9538069342        3.4049876226
 O       -11.3366310046        3.1443000370        3.5678990263
 C        -9.5549497563        4.1766365963        2.7920777692
 C        -8.3538988288        4.0368622735        1.7857858895
 C        -8.9246058292        3.3772314300        0.4389605795
 O       -10.0582404135        3.1376962581        0.3287569534
 C        -7.8736269269        2.9504014583       -0.7617608401
 C        -8.1171479259        3.8493891565       -2.1550970744
 O        -8.9198731874        4.7930528518       -2.0169763856
 C        -7.5535091828        3.3143345679       -3.5070866176
 C        -6.5133458975        4.2297442519       -4.0885882293
 C        -6.1867715842        3.7299427472       -5.5279322526
 O        -7.1133696508        3.5559967154       -6.2877942536
 C        -4.6812975396        3.4299157845       -5.9931274908
 C        -4.4090483698        4.5248947923       -7.0416947727
 O        -3.7886224427        5.5590280631       -6.8687975399
 C        -5.0420486163        4.2419580544       -8.5165206826
 C        -4.8061077758        5.3615010026       -9.6464755672
 C        -5.5471856721        6.5957316343       -9.2645269591
 O        -6.0868315309        6.6534260516       -8.2230047453
 C        -5.5354684530        7.9279718321      -10.2209494050
 C        -4.0625516683        8.5848242286       -9.9881285189
 O        -3.1866376897        7.9989245018      -10.6104760806
 C        -3.7548863329        9.8113076197       -9.0758218497
 C        -5.7952858658        7.8622126617      -11.6754725871
 C        -6.6501067269        8.9555722536       -9.5275226386
 C        -3.7934685625        3.4517309812       -4.8670364206
 C        -4.6950110970        2.0059330759       -6.7055591000
 C        -6.4190906447        3.3988797380       -0.3321048715
 C        -7.9825356897        1.4502264175       -1.0884687081
 C        -7.9548765972        1.9261957921        4.4033701016
 C        -9.2766608981        0.6799815781        2.6740885713
 C       -13.9551554340        1.1193181101        9.0167593122
 C       -13.9929776081       -1.1104889918        7.8383770574
 C       -17.6525281601        5.1211712914        3.8967382090
 C       -18.5963753581        2.7893376654        3.0642263960
 H       -17.7449170760        4.6044485695        1.0546168133
 H       -16.7906503015        3.5872455071        0.1036055831
 H       -16.0945462635        4.9278551121        0.7101145950
 H       -16.4475963940        0.9732285153        4.8397556349
 H       -17.8448535614        1.5903910925        5.9339313535
 H       -16.6325992845        0.9805286662        7.5638249427
 H       -15.8574355105        2.6314308399        7.3819016622
 H       -11.0404271019       -0.9766094208        6.9992475624
 H       -10.5064889080        0.1301096544        8.3824320254
 H        -8.9139532070        0.1101174522        6.3683776357
 H        -9.4018950509        1.6449482794        6.7638549434
 H        -9.3038771098        4.9063475479        3.5676982591
 H       -10.3625578838        4.5604183023        2.2184329357
 H        -7.3973883994        3.6046521133        2.1233508732
 H        -7.8860528972        4.9866678152        1.5081238002
 H        -8.4459443330        3.2007229505       -4.1527871686
 H        -7.0965416620        2.3461876621       -3.4232305536
 H        -5.7082167683        4.0649907142       -3.4053784435
 H        -6.7728311133        5.2944164203       -4.1066627987
 H        -6.1274263904        4.1051716764       -8.4224625759
 H        -4.5707625386        3.2730852072       -8.9808938672
 H        -5.1675302779        4.8426780105      -10.5715175298
 H        -3.7649785475        5.4241368921       -9.8612913623
 H        -2.6139245065        9.9860267252       -8.9525171723
 H        -4.0427108323        9.7887754671       -7.9574939182
 H        -4.2327453373       10.6476698216       -9.5049342835
 H        -5.7248123265        8.7735640244      -12.2906383400
 H        -6.7528162575        7.3246114615      -12.0005596605
 H        -5.0336920275        7.3047882713      -12.0791238501
 H        -6.5840095129        8.7275557304       -8.5293587206
 H        -7.6188093397        8.8067058768       -9.9330461903
 H        -6.2216803399       10.0543461459       -9.5379601259
 H        -2.7586027988        3.4644977793       -5.2905464414
 H        -3.8678706784        2.7300185422       -4.0866928330
 H        -3.8234537818        4.4434367938       -4.3165810873
 H        -5.5837250006        1.8623577737       -7.4085286819
 H        -4.7125970031        1.2098723687       -5.9116826498
 H        -3.8594501277        1.8714313298       -7.4173362509
 H        -5.9793356901        3.5610895899       -1.2574828861
 H        -6.0109592352        2.6484589378        0.2246656201
 H        -6.2844051013        4.3389508946        0.1332862293
 H        -7.9752979769        0.8345104153       -0.2017475601
 H        -7.1409317356        1.2343889575       -1.7852884134
 H        -8.8632284355        1.0823044695       -1.6097413484
 H        -7.2622415943        1.1668731057        3.9749503987
 H        -7.9731603172        1.7798581098        5.4801450605
 H        -7.7959445361        2.8699356607        3.9892679710
 H        -8.4930333125        1.0946887489        1.9623281543
 H       -10.2861571706        0.4670949120        2.1116047520
 H        -8.9789336572       -0.3376956208        2.9854912570
 H       -13.1269098293        1.0139032440        9.7677221615
 H       -14.8599694060        0.7833452142        9.4459634165
 H       -13.9878664045        2.1940496134        8.8975718740
 H       -13.2908570856       -1.7026388900        7.1896746131
 H       -14.9305704449       -1.2312235732        7.3484147878
 H       -14.1171993880       -1.5169286763        8.8103703646
 H       -18.5435834479        5.0653326441        4.4755538336
 H       -17.8302579275        5.7126718003        3.0241877067
 H       -16.7742243989        5.6723114453        4.3751392181
 H       -19.2147732210        2.6375796924        3.9681902604
 H       -18.3346838934        1.8478467099        2.5593460902
 H       -19.0835860484        3.4078468544        2.2637460639
 Na      -13.2208812331        2.1451281049        4.0496165335
