117

 C       -17.1716404496        4.6534889734        0.9689775040
 C       -16.4043506997        4.1883252549        2.2033214283
 O       -15.2562822311        3.9208503683        2.0844130618
 C       -17.1353891265        4.0732012675        3.7012311733
 C       -16.1803394038        3.1722019033        4.5610154651
 O       -15.2090539399        3.5839548061        5.1887426758
 C       -16.6540561975        1.7909637067        4.9041503878
 C       -16.1079061634        1.3787403157        6.2305513369
 C       -14.7634347288        0.5253755530        6.2377209032
 O       -14.4186833653       -0.0067098426        5.1971400905
 C       -13.8322285419        0.4900505114        7.5329203522
 C       -12.5176239679        1.3080506428        7.1798391533
 O       -12.7449415767        2.4694059159        6.7575971110
 C       -11.0338330074        1.0916923321        7.6689678757
 C       -10.0316556522        1.5247910511        6.6116952781
 C       -10.4830808789        1.3783897061        5.1508060053
 O       -11.5879103503        1.0041058561        4.8538220261
 C        -9.4542337613        1.6244878822        3.9457241097
 C        -9.9531288845        3.0174180373        3.3092994818
 O       -11.1778995802        3.4334284267        3.4498443243
 C        -9.0864418619        3.9200210707        2.5354089885
 C        -8.0625610698        3.2957719732        1.5110705795
 C        -8.6606639613        2.9591354551        0.2144485541
 O        -9.8954239619        2.6949042153        0.1333393245
 C        -7.7119790941        2.9008233821       -1.0574789472
 C        -8.2152031204        4.0267202488       -2.0269688667
 O        -8.6992924573        4.9861284475       -1.4990452873
 C        -7.8619614176        4.0112150940       -3.5380652288
 C        -6.3907969482        3.9614983829       -4.0151641795
 C        -6.2062989647        3.4895826756       -5.5458568929
 O        -7.1135783118        3.4981349630       -6.3310240090
 C        -4.7506434188        3.0981535709       -5.9925359449
 C        -4.4191126586        4.1975606185       -7.0826447349
 O        -3.7590519507        5.1297368573       -6.5541135673
 C        -4.9602975185        3.9848524802       -8.4539949045
 C        -4.7615296428        5.1267917552       -9.4274436751
 C        -5.7546648970        6.2853731896       -9.2373259885
 O        -6.8038413631        6.0617221279       -8.5273934372
 C        -5.6119931556        7.6480891341      -10.0432258804
 C        -4.1359635050        8.1391650590       -9.7186932216
 O        -3.1766801997        7.5100565871      -10.0763452100
 C        -3.9738948061        9.3358589106       -8.8652317669
 C        -5.5350417268        7.2197510261      -11.6304959397
 C        -6.6710854319        8.6649676679       -9.8462251444
 C        -3.6693997834        3.2144211098       -4.7016632990
 C        -4.8250688678        1.6993559208       -6.5141064624
 C        -6.3571791702        3.3806052370       -0.6367347718
 C        -7.4375916800        1.4990009084       -1.7504729474
 C        -8.0049320822        1.7511000464        4.4151285161
 C        -9.6218456015        0.3806308306        2.9673925752
 C       -14.2629364637        1.3272858576        8.7554580308
 C       -13.4189724830       -1.0124738099        7.9738939678
 C       -17.2100133828        5.4394251748        4.2740473293
 C       -18.5807412786        3.4308900178        3.3688544598
 H       -17.5652584918        3.8393609916        0.4801162202
 H       -16.6744580826        5.2648374783        0.2584005835
 H       -18.1089105969        5.2546026034        1.2953062063
 H       -16.2854807634        0.9251219235        4.3094112088
 H       -17.7832146411        1.8390803184        5.0279040894
 H       -16.8781953454        0.8983817139        6.8536918151
 H       -15.8770320502        2.2927094032        6.8677207444
 H       -10.8747162831        0.0553644658        7.9080174877
 H       -10.7582648187        1.6910421388        8.6048324066
 H        -9.1588036814        0.9326756707        6.8192562758
 H        -9.8226892215        2.5568372126        6.8667313190
 H        -8.4987138778        4.4715115751        3.2644395967
 H        -9.6933927463        4.6106811396        1.9983511617
 H        -7.4457905788        2.5745123032        2.0239912162
 H        -7.2838541365        4.0833886662        1.3768909187
 H        -8.3351875525        4.8586634237       -4.0078137878
 H        -8.2614634744        3.1535563681       -4.0437641092
 H        -5.7342997930        3.2135138717       -3.5062846078
 H        -5.9488543353        4.8862143626       -3.8014715533
 H        -6.0644366748        3.9195402093       -8.3857635651
 H        -4.5441074984        2.9443830040       -8.6970223603
 H        -4.7782586681        4.7482686554      -10.4724731566
 H        -3.7758479838        5.5796945269       -9.2530806121
 H        -3.1629734155        9.2392074052       -8.1626681601
 H        -4.7617130749        9.6566444432       -8.1783086410
 H        -3.6397943218       10.2325705909       -9.5816816139
 H        -6.1433222533        7.8285406907      -12.3161664371
 H        -5.9982117744        6.2676792033      -11.6347718283
 H        -4.5588999990        7.0835034442      -12.2448316597
 H        -6.3013679031        9.6781328919       -9.7678312271
 H        -7.2078910346        8.3843327246       -8.8861402561
 H        -7.3791282130        8.5560269250      -10.5672618334
 H        -2.6108513192        3.0795370874       -4.9181673345
 H        -3.8398507115        2.3465490591       -3.9905538330
 H        -3.5497805592        4.1346157866       -4.1569036882
 H        -5.7908396202        1.7012901465       -7.0409489573
 H        -4.7292844682        0.7957918795       -5.8376000172
 H        -3.9784029803        1.4153641574       -7.2305421301
 H        -5.5757822948        3.2155020676       -1.3042852099
 H        -6.0742219491        2.6178225948        0.0740861563
 H        -6.4450325736        4.2929918327       -0.2399892165
 H        -6.6144566121        0.9868792142       -1.2399134831
 H        -7.1503250682        1.4089255377       -2.7294326909
 H        -8.3571151866        0.9263417465       -1.7159241842
 H        -7.7845508939        0.9760256948        5.1505579257
 H        -7.9574070569        2.7920712034        4.7947000740
 H        -7.2618803202        1.6499065064        3.5444814262
 H        -9.0128474025        0.5752143806        2.0186005654
 H       -10.6192688550        0.0376369786        2.6960141123
 H        -9.1664212237       -0.5645920963        3.4893451618
 H       -13.5003737299        1.5193146550        9.4400065997
 H       -15.1746660755        0.9990970397        9.2914050239
 H       -14.5320251094        2.2923592708        8.2674398781
 H       -13.0270237118       -1.5992424888        7.2084658555
 H       -14.3522566962       -1.4335822100        8.4715647726
 H       -12.7774358670       -0.8390430175        8.8515921284
 H       -16.9992065667        5.4161413520        5.3504281971
 H       -18.1265492532        6.0126358255        3.9941943071
 H       -16.3475375023        5.8427605795        3.8296015730
 H       -19.3160152527        3.5830297554        4.1874010698
 H       -18.5397369416        2.3692979230        3.4527652923
 H       -18.8409082761        3.8067079533        2.4246329370
 Na      -13.0819431237        2.5711739257        4.5128029858
