117

 C       -17.1927287934        4.8020054621        1.1389239921
 C       -16.2696622017        4.3202548709        2.2414379994
 O       -15.1031185855        4.0324940352        2.2064134233
 C       -17.0601116326        4.0953771475        3.6672441899
 C       -16.1394730000        3.2241745819        4.5734993773
 O       -15.0559181309        3.6804212037        4.8897410770
 C       -16.4688082527        1.7720549397        4.8106695939
 C       -16.1747365288        1.2110068907        6.3360723192
 C       -14.7752532182        0.5633164687        6.3382128589
 O       -14.2494384047        0.0512111542        5.3884484909
 C       -13.9093356410        0.6197308804        7.5928328453
 C       -12.7742507081        1.5928977274        7.1796811518
 O       -13.0131664776        2.6228670257        6.6213085302
 C       -11.3358887254        1.2920048819        7.5488121592
 C       -10.2866874103        2.0884425991        6.5649975634
 C       -10.5480833714        1.4492733347        5.1555967653
 O       -11.4711089461        0.6464303227        5.0070928268
 C        -9.4653684754        1.6641426725        3.9756102775
 C        -9.9660749435        3.0068066344        3.3005362784
 O       -11.0575235623        3.3505891637        3.2060727713
 C        -8.8887829366        3.8305546096        2.5805457760
 C        -7.9434260914        3.2623778139        1.5296587090
 C        -8.4839424755        2.8345444512        0.1321011279
 O        -9.5390717565        2.3426481226       -0.0571401953
 C        -7.5196920146        2.8691885106       -1.1910823915
 C        -8.1062895147        4.2180997335       -2.0114604537
 O        -8.5909600334        5.2040751937       -1.4718298238
 C        -8.0308334895        4.1143488886       -3.4928213928
 C        -6.5152319012        3.7669814563       -3.9179940579
 C        -6.3663924395        3.3581974259       -5.4442412872
 O        -7.2899687839        3.3088159791       -6.1960257469
 C        -4.7897552966        3.1500664893       -5.8350621309
 C        -4.3440001334        4.2418911736       -6.8264456311
 O        -3.5738680005        5.1421651398       -6.6179359020
 C        -5.0428005951        3.9362720298       -8.3381726956
 C        -4.8237153937        4.9961646924       -9.4527591978
 C        -5.8124988415        6.1068024971       -9.3601295504
 O        -6.7320781133        6.0869066687       -8.6516582406
 C        -5.5120529132        7.3861338401      -10.2529618735
 C        -4.1910580783        7.9028643858       -9.5856904419
 O        -3.1441586030        7.3583156835       -9.8912531073
 C        -4.1762988767        9.0547915849       -8.6533447540
 C        -5.4783899698        7.1842325758      -11.7809806740
 C        -6.7906840080        8.3771952003       -9.8452991581
 C        -3.7731846440        2.8945223918       -4.5995829183
 C        -4.6812091795        1.7061581451       -6.7001890228
 C        -6.0262739986        3.2406234305       -0.8410653895
 C        -7.7880340754        1.5816990481       -1.8584668997
 C        -8.0022371207        1.8083176070        4.5836832112
 C        -9.6306949014        0.5512933708        2.8336483667
 C       -14.6862292788        1.1441436679        8.9041928043
 C       -13.5052850811       -0.9031224702        7.8986437864
 C       -17.0427254767        5.6267002647        4.3229396391
 C       -18.6208252112        3.6050020949        3.6158954822
 H       -16.9632937610        4.2015402942        0.1764735670
 H       -16.8247819339        5.8761202264        0.9226820988
 H       -18.2543531891        4.8283089630        1.1824088487
 H       -15.7526210008        1.2976972902        4.1146403399
 H       -17.4655872854        1.5120449479        4.6171095613
 H       -16.8580621262        0.4024802534        6.5177110009
 H       -16.4370375200        1.8653234224        7.1408279873
 H       -11.1177612260        0.1993041157        7.4781185342
 H       -11.1786246975        1.5041242783        8.5738708757
 H        -9.2956549244        1.7284279558        6.9017848160
 H       -10.4377722031        3.1903171177        6.6747643459
 H        -8.2701602580        4.3612945345        3.3217472385
 H        -9.5197424900        4.5723900554        2.0738639629
 H        -7.3964084315        2.5481657971        2.1671353566
 H        -7.2109037522        4.0358361489        1.4410262429
 H        -8.4490640467        5.0268972533       -3.9731211941
 H        -8.5274999588        3.2283796115       -3.8874390037
 H        -6.1345819226        2.8813483691       -3.4744414538
 H        -5.8294279706        4.5885923030       -3.5657299951
 H        -6.1413606653        3.8181468538       -8.3613291978
 H        -4.5457078611        3.0444155880       -8.5724654586
 H        -5.0007008955        4.6348225815      -10.4938874179
 H        -3.7701158938        5.3458275925       -9.4213760287
 H        -3.1290957589        9.1506124937       -8.2596391259
 H        -4.8171500473        8.9990360057       -7.7641040727
 H        -4.3233703555        9.9030573312       -9.1572459665
 H        -5.4479694867        8.1095992541      -12.3758571611
 H        -6.3970653196        6.5773422212      -12.1634071024
 H        -4.6789470887        6.5525175830      -12.1382720728
 H        -7.2278063597        9.0628244153      -10.5938956755
 H        -6.6895873144        8.9977267664       -8.8946513169
 H        -7.5054477440        7.5645792748       -9.5987203238
 H        -2.6879138707        2.7414537360       -4.8213155760
 H        -3.9516440517        2.1183039423       -3.9599242381
 H        -3.6692470333        3.7972132405       -4.0174106138
 H        -5.4144970548        1.7203646854       -7.5234818261
 H        -5.0603510710        0.8534425263       -6.1662488434
 H        -3.6973618284        1.4176239095       -6.9971578040
 H        -5.3428696318        3.1931115688       -1.7730242999
 H        -5.4729075831        2.4766343064       -0.3030901471
 H        -6.0572207624        4.2625504186       -0.2986637991
 H        -7.3372021002        0.7895292338       -1.3034906056
 H        -7.3428150441        1.3745634400       -2.8686137174
 H        -8.8634088716        1.4625835627       -1.9765898751
 H        -7.7649802047        0.8434475515        5.0431828787
 H        -7.8416133884        2.7299133811        5.1379389976
 H        -7.3599863952        1.8599332140        3.7738731794
 H        -9.5898007050        0.9590755248        1.8454152836
 H       -10.5844026047       -0.0103013762        2.9221898701
 H        -8.8965695355       -0.1851078505        2.9300844908
 H       -13.9841074264        0.8678193488        9.7415132590
 H       -15.5603985254        0.5721653255        9.0992881122
 H       -14.9686161575        2.1900564424        8.9590197015
 H       -12.5309680979       -1.0236429298        7.2537061835
 H       -14.2621027175       -1.5501096890        7.6019474868
 H       -13.2904888805       -1.0029471063        8.9830802967
 H       -16.9179411794        5.5722285152        5.3685527287
 H       -17.9435399902        6.0551024994        4.0300942947
 H       -16.1269639641        6.1686751974        3.9536689330
 H       -18.9450826035        2.8531804353        4.3083826349
 H       -18.8022914871        3.0778720717        2.6690906708
 H       -19.2372311862        4.5559317403        3.6830928295
 Na      -13.0772778971        2.9812864231        4.3465000746
