117

 C       -17.0392977853        4.8773517180        1.2278878298
 C       -16.3457725152        4.2602107042        2.3717077734
 O       -15.1709297504        4.1076253256        2.3194536739
 C       -17.1282041819        4.1621610405        3.8228363573
 C       -16.0704991642        3.2592668022        4.5422259484
 O       -14.9950363966        3.7677519608        4.8156209685
 C       -16.4383459517        1.7444098142        4.6625457911
 C       -16.2395091021        1.2303769251        6.1727398029
 C       -14.7883504278        0.6180508958        6.3440117248
 O       -14.2476336783        0.0911278296        5.4004107765
 C       -13.9518430755        0.6296384790        7.7038065323
 C       -12.7752884563        1.7755378306        7.3782451783
 O       -13.1559993043        2.7795065031        6.6747389006
 C       -11.2865696743        1.3929056444        7.5206486064
 C       -10.4253706066        2.1730154218        6.4408704496
 C       -10.5079585145        1.3890529111        5.2093395987
 O       -11.3719039719        0.5215721145        5.0393631711
 C        -9.5152072791        1.7167633669        4.0080061852
 C        -9.8775304225        3.1002818203        3.1691212820
 O       -11.0898660729        3.2824777896        3.1475325886
 C        -8.8201360573        3.9934164614        2.4105409240
 C        -7.7698339007        3.2989112398        1.4915663673
 C        -8.3451932530        2.8766994067        0.1595769611
 O        -9.3832911309        2.1605840839        0.0484567028
 C        -7.4988102751        3.0320011248       -1.2537873161
 C        -8.0486887119        4.2335899250       -1.9974230384
 O        -8.4606711052        5.2324824569       -1.4297783257
 C        -7.9908594677        4.0956654868       -3.5637398690
 C        -6.5135366548        3.7796407135       -3.9691551759
 C        -6.2213860609        3.3176055857       -5.4882940318
 O        -7.2137901955        3.0988736597       -6.1816600224
 C        -4.8689939990        3.1186193962       -5.8030193870
 C        -4.4086996582        4.1165863059       -7.0359149634
 O        -3.6672573834        4.9733223226       -6.6239981020
 C        -4.9565985014        3.8874505619       -8.3401304734
 C        -4.7419011726        4.9113624037       -9.4581281221
 C        -5.8346526627        6.0674525950       -9.4154327662
 O        -6.7924614173        5.9450257805       -8.5801016825
 C        -5.5704441017        7.3887964250      -10.1748719442
 C        -4.2032820157        7.9705882271       -9.6219999552
 O        -3.2607546487        7.2980223509       -9.9277040074
 C        -4.2087116821        8.9919254970       -8.5277898764
 C        -5.3404303404        7.0856337414      -11.6430688849
 C        -6.8109690373        8.3886902098      -10.0224079176
 C        -3.9325854856        2.9720742192       -4.6626918726
 C        -4.8044043905        1.6557365251       -6.5275963837
 C        -6.0240230234        3.0329090167       -0.9170736814
 C        -7.8659420252        1.6404885066       -1.8985381943
 C        -8.2111475928        1.6059039214        4.7957534944
 C        -9.5450881213        0.6683999410        2.9119833399
 C       -14.9758053212        1.0121381410        8.9490408009
 C       -13.4262632241       -0.7829189441        7.8563624490
 C       -16.9073821695        5.5835848403        4.3133266190
 C       -18.5317138540        3.7384755743        3.6395947658
 H       -16.6399918719        4.5602382548        0.3612333203
 H       -16.8734945212        5.9561285652        1.3029120383
 H       -18.1270411642        4.6673046301        1.0520202562
 H       -15.9335181992        1.2293107226        3.8594830380
 H       -17.4870582921        1.5554480321        4.6207409904
 H       -16.9964058980        0.5354403053        6.4043747935
 H       -16.5712138849        2.0909781175        6.8758040394
 H       -11.1534772101        0.3048883405        7.4772145744
 H       -10.9927775521        1.6656572416        8.5264833471
 H        -9.4529253239        2.3169368191        6.8473967130
 H       -10.9923212866        3.1373304570        6.2084206415
 H        -8.2768391926        4.4268382224        3.3841011166
 H        -9.2964117756        4.7997548661        1.8698975198
 H        -7.3535566127        2.5561655020        2.2032968675
 H        -6.9706484301        4.0429652521        1.3335835493
 H        -8.3536916546        5.0792985435       -4.0400019005
 H        -8.5725694668        3.2177550437       -3.9872178903
 H        -6.0656848718        2.9647750277       -3.3567505506
 H        -5.9984385439        4.7158838059       -3.6335608031
 H        -6.0138281014        3.9220053966       -8.1961349664
 H        -4.6668816428        2.8100080784       -8.5396088768
 H        -4.8123649618        4.4426536770      -10.4629873690
 H        -3.7577715894        5.2819899332       -9.3475554479
 H        -3.2614848469        9.3741957150       -8.2612503074
 H        -4.5732707890        8.3870588319       -7.7353556426
 H        -4.8685766649        9.8941986612       -8.5866561831
 H        -4.7527800519        7.8450408817      -12.0284665394
 H        -6.0815043380        6.8813628397      -12.3384075262
 H        -4.7275422556        6.1263612932      -11.6533653896
 H        -7.0325639965        8.8275765354      -11.0213183342
 H        -6.6432478822        9.3584849052       -9.3613376482
 H        -7.6441164366        7.8908744255       -9.7193675173
 H        -2.9255387380        2.5752626042       -5.0009214204
 H        -4.1137642331        2.2946605326       -3.8109935777
 H        -3.6288823009        3.8995216382       -4.2157290197
 H        -5.6386552128        1.5891105342       -7.1006022398
 H        -5.0952325457        0.9015274944       -5.8281276864
 H        -3.9207492455        1.3358678445       -7.0171955603
 H        -5.4897495001        2.4272325150       -1.7322295564
 H        -5.7643279311        2.3159618393       -0.0663415677
 H        -5.6100132978        4.0382466178       -0.7244943542
 H        -7.7637807172        0.7629124285       -1.2109974371
 H        -7.2674898084        1.3354676624       -2.7213959433
 H        -8.9086246361        1.7470372833       -2.3066831379
 H        -8.2580912590        0.6321390117        5.2439564214
 H        -8.0641853396        2.4936650050        5.4148875742
 H        -7.3160934164        1.6006293393        4.1782241042
 H        -9.5288986525        1.0613359810        1.9415896667
 H       -10.3585246031        0.0682197611        2.9550228598
 H        -8.6858028728        0.0388667807        3.0116034850
 H       -14.4442424720        0.7924043646        9.8214862417
 H       -15.8693652208        0.3963113400        9.0396310838
 H       -15.3266073621        2.0952818508        8.9847251364
 H       -12.7093013988       -0.8834606972        7.0917565096
 H       -14.2792790014       -1.4068262197        7.6934941796
 H       -12.9641820825       -0.8822982750        8.8662130998
 H       -17.1616830237        5.7048577863        5.3550895699
 H       -17.5680724875        6.1524946613        3.6260877900
 H       -15.8361809810        5.8019675864        4.2425033499
 H       -18.8338417798        2.8115489523        4.2858950904
 H       -18.6456224210        3.3670586453        2.6372124002
 H       -19.2598740286        4.5518924529        3.8701568670
 Na      -13.1272388355        3.1295260452        4.1591679493
