117

 C       -11.7757906295       -6.1093387792        2.5008017879
 C       -10.5554761643       -5.4825058878        1.7167075804
 O        -9.8415734321       -6.3228597258        1.2178847242
 C       -10.2593936838       -3.9088226825        1.7280922430
 C       -11.0710771261       -2.9182054223        0.7590854182
 O       -10.4652794753       -2.2760020302       -0.1078693203
 C       -12.5096999266       -2.8610209176        0.9563316924
 C       -13.3420323906       -2.7418773452       -0.3777987744
 C       -12.8649163752       -1.7179838961       -1.5255312888
 O       -12.1338261041       -2.0907222922       -2.3903462073
 C       -13.2253774738       -0.2141704864       -1.3213862758
 C       -11.9876625415        0.5701773050       -0.7962868607
 O       -12.0203905651        1.3199468699        0.1432415207
 C       -10.7326003136        0.3417781393       -1.6773335921
 C        -9.3282858779        0.6423887701       -1.1764322026
 C        -8.9159827333        2.1581846032       -1.3712410286
 O        -9.1462664331        3.0376276224       -0.5808690642
 C        -8.2273980880        2.6251276223       -2.8165710771
 C        -9.1860962681        3.7357146714       -3.4313762892
 O       -10.3161862519        3.7364545115       -2.9202401510
 C        -8.7085483385        4.7942177179       -4.5412071024
 C        -9.7388022082        5.8782084559       -4.5036845794
 C        -9.5121953554        6.8166531731       -3.2828007266
 O        -8.4577733863        6.7876064163       -2.6618871099
 C       -10.6025675319        7.9538579123       -2.8274537099
 C       -10.1508981878        8.4421156819       -1.3901807512
 O        -9.7864525103        7.6268163423       -0.5738732924
 C       -10.0924175702        9.9576766910       -1.2842743834
 C        -9.4913923281       10.3607283579        0.0501079880
 C       -10.4988335441        9.9004155869        1.2755237629
 O       -11.5150557635        9.3040472635        1.0271746887
 C       -10.1105418829       10.1584768048        2.7702144261
 C        -8.7672084506        9.2720685096        3.1326639555
 O        -7.7198386202        9.3726933914        2.6086125724
 C        -9.0189074067        8.1077192496        4.1682511705
 C        -7.7921632169        7.1338062810        4.0652740794
 C        -7.7697361215        6.3165788889        2.8665847504
 O        -8.7509584501        6.3829024272        2.1034806345
 C        -6.7363807999        5.1867640864        2.7089922045
 C        -5.8817806951        5.7036390356        1.4824143756
 O        -6.4636849560        5.7394532325        0.4058025891
 C        -4.5661684300        6.3947822663        1.6498778875
 C        -5.8495835028        4.9704774321        3.9482835206
 C        -7.3887301567        3.7771641404        2.2651362271
 C        -9.6648257973       11.6240311013        2.8583836773
 C       -11.3060202099        9.7892628529        3.6819066147
 C       -10.5660963907        9.0151941673       -3.8753325982
 C       -11.9718254621        7.1946438152       -2.6038289507
 C        -6.7820556123        3.1560450993       -2.5674076245
 C        -8.0533737304        1.4466864225       -3.7445481173
 C       -13.7073307396        0.2833624328       -2.7454284360
 C       -14.4104216976       -0.0759156992       -0.3178746909
 C       -10.3592873613       -3.3509969393        3.1424989043
 C        -8.7479854871       -3.7257115557        1.3141575116
 H       -11.5279370672       -5.8515551909        3.5554658218
 H       -11.6232979494       -7.1323041267        2.4203419784
 H       -12.7295332692       -5.7229424564        2.2251225970
 H       -12.5946833974       -1.9628371036        1.6227481433
 H       -12.8787564348       -3.6968240558        1.4962559948
 H       -14.4381064583       -2.5624118328       -0.1271236923
 H       -13.3707260664       -3.7565710226       -0.8131531024
 H       -10.7971417112        0.9545921354       -2.6370800641
 H       -10.6691481550       -0.7255448930       -1.9954683103
 H        -8.5356439725        0.1934235909       -1.7208350081
 H        -9.2725768115        0.3945790481       -0.1409678806
 H        -8.7172772124        4.2241402126       -5.4660626732
 H        -7.6001279492        5.1198604984       -4.5678270818
 H       -10.7718506746        5.4569568538       -4.6177758680
 H        -9.6173182601        6.6191130457       -5.3440347219
 H       -11.1706135884       10.3264467171       -1.3831241064
 H        -9.4693800925       10.3729106126       -2.0845367059
 H        -9.4337768588       11.3751773946        0.1662987513
 H        -8.4926435338        9.8410457588        0.1159431346
 H        -9.9834976340        7.6069591548        4.0112721789
 H        -9.1499198664        8.6800280569        5.0394470374
 H        -7.7285442229        6.4589609574        4.9356464508
 H        -6.8475424721        7.6467977131        3.9584015044
 H        -4.2548893791        6.6511184321        2.6524855957
 H        -4.4741116006        7.1726394019        0.8306247420
 H        -3.8893751470        5.6390106417        1.2923666196
 H        -6.5438491646        4.8191974596        4.8070191062
 H        -5.1410461867        5.7134031387        4.2119700579
 H        -5.2507843219        4.1248119741        3.8564537124
 H        -6.8902145805        3.0327323146        2.7960143170
 H        -7.4069553245        3.6667571591        1.1104603343
 H        -8.4358831708        3.8246306761        2.5385360745
 H        -9.4547995763       11.8572304363        3.8952139736
 H       -10.4690987049       12.3185466358        2.5889408633
 H        -8.7952862399       11.8370278340        2.2633042385
 H       -10.8940774277        9.4576098920        4.6505706329
 H       -11.7692743761        9.0071643803        3.0945834591
 H       -11.9330903022       10.6809540313        3.9641356770
 H       -10.6582489567        8.6509054650       -4.9303502899
 H        -9.5301287011        9.4525183296       -3.8627134464
 H       -11.2277713840        9.8291015473       -3.7882332704
 H       -12.4255535331        6.7847705263       -3.4206479685
 H       -12.6563514919        7.9257436376       -2.1092745382
 H       -11.7892279870        6.4071095152       -1.9215025998
 H        -6.4151611238        3.3340639852       -3.5666862622
 H        -6.1419475904        2.4496663104       -2.0816268157
 H        -6.6131920834        4.0356292815       -1.9825991115
 H        -9.0577051089        1.0435670843       -4.0477117170
 H        -7.3341236642        0.6327150931       -3.3285789781
 H        -7.6242998751        1.7907787469       -4.6730314069
 H       -14.6906426842       -0.1256452307       -2.9873713466
 H       -12.9514172956       -0.1553850652       -3.4104848092
 H       -13.7057072662        1.3843234757       -2.8075066569
 H       -15.2319706110       -0.6133621905       -0.7014062004
 H       -14.6600149379        0.9854384537       -0.1350483851
 H       -14.0041495828       -0.3057303332        0.6723012194
 H       -11.4023688254       -3.4821143436        3.3714461756
 H        -9.9795488670       -2.3342610023        3.3084732116
 H        -9.8500110118       -3.9812979127        3.8163413879
 H        -8.3551270431       -2.7022761523        1.5758310155
 H        -8.5539973273       -3.9359840128        0.2309493684
 H        -8.2480375441       -4.5520862467        1.8351408889
 Na       -8.9308782825        5.4200250566       -0.4128976167
