117

 C        -7.9756967801       -6.2712403937        3.1283897391
 C        -9.2283208096       -5.6619240856        2.5360779615
 O       -10.0767356108       -6.3722011945        2.0091516031
 C        -9.4857927359       -4.1041591210        2.5660399701
 C       -10.3983465459       -3.5845531113        1.4332226341
 O        -9.8712348166       -3.4880789301        0.3233059966
 C       -11.7923698754       -3.3225619447        1.6692749853
 C       -12.7057105707       -3.4410074883        0.3680650002
 C       -12.7335598925       -2.2364384890       -0.5348442429
 O       -12.4002894885       -2.3600072495       -1.6827306725
 C       -13.1893902981       -0.8233222156       -0.0011690972
 C       -11.8625539429        0.0747097876        0.3012484792
 O       -11.1765342566        0.0087291644        1.3110411305
 C       -11.3284512239        0.9365641828       -0.7740220420
 C        -9.8358994184        1.2973264297       -0.5404927394
 C        -9.3116668018        2.6124732780       -1.1946210359
 O        -9.0773428292        3.6399757763       -0.5847511666
 C        -9.0812906578        2.5513937755       -2.7561731509
 C       -10.4247371349        3.2438069254       -3.3358857536
 O       -11.4592790138        3.3043955064       -2.6815924453
 C       -10.3822764777        3.9054381256       -4.7314704393
 C       -10.9648523246        5.3977262672       -4.5566738978
 C       -10.4370284388        6.2273721566       -3.4567719972
 O        -9.3420180557        5.9361236321       -2.9512274730
 C       -11.3430947746        7.2528612077       -2.7688404223
 C       -10.4756016349        8.2345221929       -1.8360375341
 O       -10.2021549694        7.9223558951       -0.6945157606
 C        -9.9513692399        9.6131512717       -2.3422910054
 C        -9.3661978769       10.5213411932       -1.1323276470
 C       -10.2289126086       10.5877284176        0.0715309165
 O       -11.4083682709       10.2057247367        0.0786957748
 C        -9.6325740350       10.9761016378        1.5157453308
 C        -8.6060592912        9.8471135446        1.9726103958
 O        -7.6554191983        9.5463968446        1.2491148455
 C        -8.8874429056        9.0180839672        3.2640271539
 C        -7.8683993130        7.8498158329        3.4581708795
 C        -7.7661112601        6.9850229077        2.2077394118
 O        -8.6474268964        6.9078165155        1.3518961466
 C        -6.5315851442        6.0256042530        2.2173736371
 C        -5.8575729265        6.3473232821        0.7185946500
 O        -6.3808804157        6.2638652243       -0.3622711808
 C        -4.3549153426        6.6496770002        0.7796840217
 C        -5.5489987857        6.0581887366        3.4115675937
 C        -7.0439760058        4.5592085021        2.1037189478
 C        -8.6709202856       12.2044100213        1.3405835719
 C       -10.7776696946       11.2155756907        2.5132192936
 C       -12.2401715430        7.9720052126       -3.7840788653
 C       -12.3868633500        6.5471023606       -1.8891173521
 C        -7.6612269827        3.1975821731       -3.0946356784
 C        -9.2173037445        1.1431395974       -3.4792336953
 C       -13.9743870840       -0.2641972770       -1.1853381998
 C       -14.0204681328       -0.9001670527        1.2866092407
 C       -10.0799465706       -3.9574242618        4.1669084736
 C        -8.0877716311       -3.2770921831        2.5970862612
 H        -6.9627906169       -5.9748397870        2.6848436498
 H        -8.0728033129       -7.3163329446        2.8295679583
 H        -7.8338066216       -6.0444322053        4.1976340847
 H       -11.8772657517       -2.3656537489        2.0947628532
 H       -12.2045998461       -4.0290148254        2.3431258603
 H       -13.7313957449       -3.5056995632        0.7714782113
 H       -12.5491178993       -4.2947458702       -0.2222351997
 H       -11.9899525032        1.7770886011       -0.7529984652
 H       -11.4300955399        0.4722452520       -1.7831406319
 H        -9.3635888871        0.4156970362       -0.9723764482
 H        -9.6332805730        1.4396087146        0.5187501343
 H       -11.1428587480        3.3638839964       -5.3700364711
 H        -9.3933924989        4.1132693359       -5.2159708864
 H       -12.0920585886        5.3964204825       -4.4944005555
 H       -10.6150799308        6.0162941004       -5.4965676717
 H       -10.7573658136       10.2829196146       -2.7744783329
 H        -9.0864945114        9.6289799751       -3.0918631402
 H        -8.9981861635       11.3820526577       -1.6408595883
 H        -8.5466400389        9.9735171837       -0.6929643517
 H        -9.8348735185        8.5400885754        3.3402424789
 H        -8.5997894648        9.6608776835        4.0924865642
 H        -8.0119504064        7.4129314511        4.4854733630
 H        -6.9164737979        8.4011354105        3.5552801325
 H        -4.1994982805        7.3971471285        1.6212259464
 H        -4.0221295150        6.9972417684       -0.1260861185
 H        -3.6604581771        5.8508036870        1.0056898374
 H        -6.0824774045        5.6047752597        4.3076704094
 H        -5.1707948697        7.0606035447        3.5997728867
 H        -4.6960268437        5.4300756265        3.2061512974
 H        -6.2648992516        3.9372532589        1.6819542370
 H        -7.9964153949        4.6548356263        1.5606509186
 H        -7.3764678687        4.0880517960        3.0534825383
 H        -8.0646917648       12.3812057877        2.2319719706
 H        -9.3529780978       13.0735302524        1.2777429840
 H        -8.1174913796       12.2553624777        0.3987647859
 H       -10.3089493960       11.8594988332        3.2653780201
 H       -11.0735988015       10.3310682637        2.9291023005
 H       -11.6906864620       11.7083567319        2.1047793142
 H       -13.1836588096        7.5017564878       -4.0096888007
 H       -11.7254238774        8.1585164032       -4.7293378437
 H       -12.5525247407        8.9318879184       -3.3507740399
 H       -12.9664272323        5.7304172560       -2.4467746150
 H       -13.1120127905        7.2771958841       -1.6477062167
 H       -12.0156259860        6.0005812031       -1.0120262584
 H        -7.4119946051        2.8062225791       -4.0777051113
 H        -6.8611838928        3.0002809278       -2.3527412060
 H        -7.6748092504        4.3320523950       -3.1317681741
 H       -10.1908692592        0.7984723322       -3.1992156012
 H        -8.4835527600        0.3538042943       -3.1547488982
 H        -9.1470532485        1.1695208378       -4.5133322942
 H       -15.0136871963       -0.5423408593       -1.1591185706
 H       -13.7422019996       -0.8320499411       -2.0862242484
 H       -13.9357171689        0.8166935135       -1.4054491967
 H       -14.7354225161       -1.7206335717        1.2924622585
 H       -14.5267435760        0.0621528506        1.5653869818
 H       -13.3921811985       -0.9079398006        2.1966364363
 H       -10.9536545132       -4.6228435412        4.2698736272
 H       -10.3577776691       -2.9482433218        4.5265759352
 H        -9.2995316713       -4.2707027388        4.8245088348
 H        -7.1512119347       -3.8719895185        2.8333701922
 H        -8.1190166697       -2.4888971312        3.4095744404
 H        -8.0105925238       -2.8579184322        1.5920157617
 Na       -8.6137179614        5.7363622677       -0.7834513395
