117

 C        -4.3030687408       -0.7762645103        9.1596388526
 C        -5.1219775915        0.6272342209        9.1663700039
 O        -4.5169284601        1.6576975145        9.1636370504
 C        -6.7354585716        0.6792660719        8.9992423667
 C        -6.7797006937        1.1348192184        7.4360192975
 O        -6.4891768889        0.2378207924        6.6246397565
 C        -6.6244495838        2.5599764618        6.9369855632
 C        -5.7016812601        2.6749546073        5.6815394663
 C        -6.1798841115        3.7846347834        4.7840970230
 O        -7.3552866288        4.0164136430        4.7298093147
 C        -5.1508315936        4.5171590955        3.6411158837
 C        -5.6220025285        4.1151440814        2.2691384460
 O        -4.9346846390        3.2273806454        1.6724206191
 C        -7.0347381246        4.5605066860        1.8492879213
 C        -6.9863506077        4.6053095366        0.3135789271
 C        -8.0329269227        3.7704780760       -0.4884021813
 O        -8.6887098213        4.3438966923       -1.3201667058
 C        -8.3068774804        2.2393618014       -0.2993404924
 C        -9.7657775110        2.2241854155        0.4337588586
 O        -9.9118708975        2.6375756163        1.5637111157
 C       -10.8678400835        1.3366363221       -0.2521803986
 C       -12.2120130918        1.8741444747        0.1588466927
 C       -12.3601208999        3.4371837357       -0.1456215295
 O       -11.3249328370        4.0823280953       -0.1883990773
 C       -13.7961417619        4.0874465030       -0.5108132005
 C       -13.8742031010        3.9028123079       -1.9913367634
 O       -12.9043957449        3.7818196837       -2.7010595103
 C       -15.3783823391        3.8169757077       -2.4982753459
 C       -15.5529740191        4.5190732908       -3.8842674732
 C       -15.1461080768        5.9477537905       -3.9653977246
 O       -15.0526739884        6.6168258389       -2.9442577995
 C       -14.9237851267        6.6218836480       -5.3517786170
 C       -13.5679394532        6.1217591296       -5.9139907344
 O       -13.4123903463        4.9670148715       -6.1916873233
 C       -12.4156942273        7.0851916475       -6.1434724565
 C       -11.1830924587        6.3263570079       -6.5640225667
 C       -10.5244863283        5.3444136702       -5.5359705445
 O       -10.7898681091        5.5534726046       -4.3410292041
 C        -9.5246799169        4.1541545152       -5.8397801524
 C       -10.2681594915        2.7530360478       -5.5733699339
 O       -10.6503940753        2.4117475605       -4.4968507572
 C       -10.2509099375        1.7198386023       -6.7549944111
 C        -9.0486182340        4.2566840492       -7.3263155565
 C        -8.2623597898        4.2652690365       -4.8447354990
 C       -15.9129738817        6.2645562593       -6.4681554448
 C       -14.9547398949        8.1010596270       -5.0749476887
 C       -14.9014217145        3.4067026072        0.3276318848
 C       -13.8394061440        5.6149389547       -0.1307527220
 C        -8.2921549852        1.5084989993       -1.5581546170
 C        -7.4316668527        1.5747192712        0.7279348525
 C        -5.1876034361        6.0942772712        3.7052660473
 C        -3.7306256713        3.9778790281        3.8761637586
 C        -7.3484734948       -0.7356447402        9.1333026473
 C        -7.2430156997        1.7724987759        9.8971024977
 H        -3.4568791285       -0.5717168441        9.8030889063
 H        -3.9112636675       -0.8815718409        8.1047452056
 H        -4.7800653316       -1.6911894990        9.4216746405
 H        -6.1891774249        3.1632721451        7.6946793928
 H        -7.6420600145        2.8011483853        6.7906360084
 H        -5.7586469587        1.8322557942        4.9501264181
 H        -4.6230727177        2.7110408144        5.9032000442
 H        -7.2206861898        5.5420170057        2.2772968291
 H        -7.7791682035        3.9550787380        2.2916789737
 H        -6.0329177602        4.2205005188       -0.0063387161
 H        -7.0817297255        5.6440715439       -0.0484585770
 H       -10.8676243944        0.2841312832       -0.0296948041
 H       -10.6964112937        1.3083229471       -1.3707505658
 H       -12.4003632503        1.5143829810        1.1841509433
 H       -12.9301850969        1.2733572882       -0.4577130150
 H       -15.9975106486        4.2345711140       -1.7882724516
 H       -15.5922248795        2.7357918980       -2.6771323192
 H       -16.5693528729        4.3056678841       -4.3027338092
 H       -14.7279554549        4.0127920158       -4.5284105848
 H       -12.3296740370        7.8101870691       -5.3421808255
 H       -12.5672603501        7.6948602171       -6.9930439543
 H       -10.3952638165        7.0476757127       -6.8354470058
 H       -11.3656755054        5.9404397315       -7.5673936416
 H        -9.2312021612        1.2051997921       -6.8255182091
 H       -10.5785633356        2.1388234483       -7.7182189484
 H       -10.8532398844        0.9006363405       -6.5955657047
 H        -8.1557575513        4.9014548623       -7.3908010782
 H        -9.8159388572        4.7266511426       -7.9118742091
 H        -8.6155762233        3.3495746120       -7.8041996949
 H        -8.2404106928        3.6104430732       -3.9784074967
 H        -8.2134616747        5.2960222025       -4.4646956517
 H        -7.4364551813        4.0042017815       -5.3269296016
 H       -15.5628522664        5.4340184515       -7.0505377578
 H       -15.9555952082        7.1130727442       -7.1640346148
 H       -16.8449776752        6.1028789326       -6.1235070423
 H       -14.8667056216        8.6087409325       -6.0527494741
 H       -14.1652998880        8.4067465441       -4.5131317587
 H       -15.8867060053        8.4119157763       -4.7354678220
 H       -14.5888132245        3.3063350221        1.3546449187
 H       -15.1527470172        2.4117896017       -0.0099609776
 H       -15.7701043347        4.0558045671        0.3539725746
 H       -13.7573146641        5.8171253228        0.9548779708
 H       -14.7362325096        6.0610599775       -0.5654474329
 H       -13.0036689436        6.0888611989       -0.6893156783
 H        -8.5748741547        0.4507132017       -1.5825779074
 H        -7.3316615762        1.6830065293       -2.0014262955
 H        -9.0441334151        1.8257390971       -2.3231001945
 H        -7.6607570976        1.9346288089        1.7263659001
 H        -6.4289076720        1.7172148785        0.5126096154
 H        -7.6172880979        0.4756190728        0.7985876619
 H        -4.4498805578        6.4551922509        4.4048299702
 H        -6.1455820635        6.5269452484        4.1259486381
 H        -5.0110088209        6.4538314489        2.7160054026
 H        -3.4540262209        4.0594165318        4.8852353320
 H        -3.0810549292        4.5626153974        3.2140104483
 H        -3.6915017359        2.9512800663        3.6321102043
 H        -7.0989770343       -1.3607952716        8.2660014179
 H        -8.4169219265       -0.5446114623        9.0072236061
 H        -7.0683951525       -1.2025571316       10.0741491694
 H        -6.6981674838        1.9728214999       10.7607571328
 H        -8.3128520224        1.7525614764       10.0985594084
 H        -7.0623366104        2.6869969077        9.3805615053
 Na      -10.6132762947        3.9869498866       -2.7029745101
