117

 C        -7.8483662074        6.0559897105        4.0081683232
 C        -7.5608489621        6.6246710305        2.6546768073
 O        -8.5050720036        6.7398503827        1.8753448277
 C        -6.1776484429        6.9408906393        2.2060891584
 C        -6.3907723395        7.8021645457        0.8639161043
 O        -6.5836401183        7.3465486811       -0.2250369107
 C        -6.5443648861        9.3065585960        1.1671029511
 C        -6.2083052066       10.1769496353       -0.1348827210
 C        -7.2732114798       10.9090942555       -0.9209331647
 O        -8.3715859287       11.2442502857       -0.4203515176
 C        -7.2386375480       11.0853981277       -2.4428895736
 C        -8.0495065766       10.0397129005       -3.1323242266
 O        -7.5434603522        8.9755233710       -3.1620016608
 C        -9.5768518634       10.1552205917       -3.6042646688
 C       -10.3331487033        8.7490157642       -3.8515852758
 C       -10.0573617484        7.7403548195       -2.8387385698
 O        -9.7352919844        8.0891662188       -1.7027436869
 C       -10.2451728627        6.0610141025       -3.3695363796
 C       -10.9108164962        5.2368986313       -2.2046023981
 O       -10.2822327217        5.1954997088       -1.1651740486
 C       -12.4121552324        4.7075806171       -2.2483224649
 C       -12.7052747687        3.7691669634       -1.0859626062
 C       -13.8745265930        2.7057092803       -1.2611389407
 O       -14.0621327134        2.0624059798       -2.3438192294
 C       -14.6912059977        2.2953200536       -0.0017232401
 C       -13.7120841065        2.4784022150        1.1384053088
 O       -13.6961751033        3.5348479499        1.6937622136
 C       -12.7541972574        1.3612833332        1.5628779966
 C       -12.8918784003        1.2562476764        3.0949827007
 C       -11.9075490608        0.2560854839        3.7529335834
 O       -11.1351698999        0.7040560075        4.6394470747
 C       -11.6963082927       -1.2665077558        3.3963118305
 C       -10.6161756681       -1.4411319376        2.1467824727
 O       -10.9455199577       -0.9715130034        1.1086976786
 C        -9.4243730555       -2.3161554520        2.3552684170
 C        -9.8679960066       -3.8723436528        2.1226663318
 C       -10.2721819969       -4.2122488435        0.6141894473
 O       -11.3188553318       -3.7600987115        0.2030620624
 C        -9.4686789032       -5.3290192075       -0.0166094575
 C        -9.9143627725       -5.5434733337       -1.4418981439
 O       -10.2391577463       -6.6776792410       -1.7747496630
 C       -10.0420068678       -4.2971087432       -2.4473515663
 C        -7.9817017661       -4.9565837479        0.1241888665
 C        -9.8984061525       -6.6066300892        0.7251918816
 C       -11.3365925740       -2.0983411927        4.8008449626
 C       -13.0650365178       -1.9355496815        2.9218225930
 C       -15.8104662900        3.2973562152        0.3272356458
 C       -15.3212118281        0.8512396512       -0.1664788609
 C       -10.8397160314        5.9977731753       -4.8434890507
 C        -8.7685340238        5.5460977289       -3.4471310137
 C        -7.7529081704       12.6348789457       -2.6059063747
 C        -5.8586989541       10.9855018867       -3.1539800799
 C        -5.4016537407        7.6814731269        3.3374667565
 C        -5.5076268563        5.5619278704        1.9178251971
 H        -7.0711637950        5.4073826075        4.3298555613
 H        -8.7826464511        5.4037484442        3.8710624663
 H        -7.9562175401        6.9337964821        4.6094166962
 H        -5.8027581067        9.6387514574        2.0386235891
 H        -7.6056447349        9.4163000589        1.4170028651
 H        -5.5389405061        9.7278462087       -0.7555278462
 H        -5.7606596696       11.0793080240        0.2711693957
 H        -9.7289131456       10.6162971567       -4.5075841630
 H       -10.0689494568       10.7467795089       -2.7543721878
 H       -10.1191169028        8.4774327075       -4.8883153653
 H       -11.4159064929        8.8082370915       -3.8269575577
 H       -12.5996990460        4.2865310622       -3.2298955255
 H       -13.1353935259        5.5420444893       -2.1727269272
 H       -12.7329315108        4.3645198804       -0.1887001280
 H       -11.8297877334        3.1496619288       -1.1314031484
 H       -11.7075929769        1.6690412961        1.4148048487
 H       -12.8896979194        0.4527990039        1.0890713987
 H       -13.9021727269        1.1312542186        3.4711007487
 H       -12.7373054319        2.3119508062        3.5040329162
 H        -9.1459738354       -2.2545370155        3.4857345897
 H        -8.5715521569       -1.9675653781        1.7004780244
 H       -10.8378704580       -4.0418496617        2.5673894287
 H        -9.0364080231       -4.4858628754        2.5686038990
 H        -9.8620696414       -4.6406967452       -3.4490244324
 H        -9.5039675871       -3.2989006459       -2.1735591341
 H       -11.0864452570       -4.2100535891       -2.3163352316
 H        -7.3986639431       -5.0265503812       -0.8181550856
 H        -7.5481901794       -5.5910937123        0.9791267008
 H        -7.8256780555       -3.8741588531        0.3056272460
 H        -9.4982246231       -6.6700654585        1.7656987496
 H        -9.4397312980       -7.4071949041       -0.0528480038
 H       -10.9337627512       -6.8159622701        0.7819719402
 H       -10.9307899380       -3.0313607021        4.5016740726
 H       -12.3276617155       -2.2239082133        5.1898686351
 H       -10.8065482773       -1.5962185650        5.5864896169
 H       -13.5108841127       -1.2855258863        2.1939036859
 H       -13.7256596867       -2.0628304205        3.7859677930
 H       -13.0036837834       -2.9425826684        2.7385007375
 H       -16.3499369629        3.3543500886       -0.5806356061
 H       -15.3656518019        4.2878494435        0.6337794117
 H       -16.4874742136        3.0416869827        1.1272308044
 H       -15.4870511608        0.5594971807        0.7997367862
 H       -14.5911359768        0.3838645648       -0.7939171939
 H       -16.1566292325        0.8251307249       -0.7416705332
 H       -10.0625304425        6.6442653052       -5.3016109823
 H       -11.8147826645        6.3293283723       -5.0456634746
 H       -10.5920056408        5.0836642013       -5.3939314003
 H        -8.8296126991        4.5166298821       -3.7769723879
 H        -8.1233099115        5.5271016281       -2.5368941500
 H        -8.1555222481        6.0109755140       -4.2371666562
 H        -6.7839170588       13.1692479821       -2.3409310034
 H        -8.5031093086       12.7998701779       -1.8325840866
 H        -8.1190038435       13.0027363921       -3.5085318128
 H        -6.1479640644       11.1753278605       -4.2143633769
 H        -5.3039412522       10.0781213839       -3.2877591254
 H        -5.1321354556       11.7526897904       -3.0140746778
 H        -5.1860549419        7.0374269980        4.1874576428
 H        -5.8756187722        8.5121310539        3.7933242213
 H        -4.3716747432        8.0959693918        3.0262676591
 H        -5.3821832638        5.2117673186        2.9036609789
 H        -4.4293360790        5.7029579875        1.5152416650
 H        -6.1076594042        4.8504147148        1.4262773795
 Na       -8.6121613795        6.4771382935       -0.3123548936
