117

 C        -7.8850863002        6.1584284901        4.0220721393
 C        -7.6741639008        6.5684332330        2.5098694364
 O        -8.5197511766        6.5523133746        1.6711946771
 C        -6.1562752563        6.9782183859        2.1453978329
 C        -6.3688039788        7.8501445203        0.9075477753
 O        -6.5778728671        7.4141651501       -0.1949410249
 C        -6.5216929882        9.5669577597        1.0316710335
 C        -6.1248702357       10.1925005639       -0.2310183095
 C        -7.3505261273       10.8777322321       -0.9455134058
 O        -8.2139082193       11.3114149297       -0.2931338586
 C        -7.1271693105       11.1674042708       -2.6227965720
 C        -8.0099567650        9.8340497671       -3.2260846085
 O        -7.6528872846        8.6953089735       -3.2310258363
 C        -9.4230546470       10.2010138434       -3.7479818661
 C       -10.3155618144        8.8408582814       -3.9250630371
 C       -10.0330678966        7.7824936802       -2.8306575714
 O        -9.8210450110        7.9888248591       -1.6473901379
 C       -10.1362454136        6.2794365504       -3.2810432456
 C       -10.8719705832        5.4259728141       -2.1087222910
 O       -10.2631231317        5.1737298518       -1.0856437508
 C       -12.2665888161        4.7635158103       -2.1791024630
 C       -12.6307010476        3.7355093478       -1.0576068836
 C       -13.8957868949        2.7974298222       -1.2848901134
 O       -14.0461859978        2.2697471966       -2.3286106261
 C       -14.7530182791        2.3318586849        0.0046757194
 C       -13.7529966954        2.5203593978        1.1968921995
 O       -13.6152282466        3.5979716475        1.8344859402
 C       -12.7847664655        1.3571597021        1.5034861930
 C       -12.7656220401        1.0818964527        2.9552356571
 C       -11.8480766918        0.1758808838        3.6846490124
 O       -11.1644066862        0.6768489431        4.5853260797
 C       -11.8889230376       -1.3620915279        3.3666360290
 C       -10.7674833327       -1.5373432186        2.3092966275
 O       -10.8769534496       -0.9698108106        1.2121341829
 C        -9.5579287647       -2.4262500835        2.4948902203
 C       -10.0137995722       -3.9065802173        2.3623456782
 C       -10.4341010289       -4.1932605564        0.9122228019
 O       -11.3108684703       -3.6802147559        0.2686219816
 C        -9.5017247451       -5.3618190559        0.1974359095
 C       -10.0316886842       -5.6155942417       -1.3370889696
 O       -10.3440744787       -6.6357441424       -1.7998001322
 C        -9.9064687606       -4.3443579340       -2.3273187434
 C        -7.9883230812       -5.1384623354        0.2541448761
 C        -9.7794621256       -6.7386157237        0.8799958129
 C       -11.4150776257       -1.9677556654        4.6865016491
 C       -13.1213762243       -1.9287040167        2.7448209332
 C       -16.1372923855        3.2774621333        0.1829484213
 C       -15.1817258565        0.8498074941       -0.1571009198
 C       -10.8081158491        6.0687368282       -4.6124600376
 C        -8.7395326179        5.6487305129       -3.4818562429
 C        -7.6433941241       12.6261322052       -2.8464712597
 C        -5.6919100029       10.9685772752       -3.0756954228
 C        -5.4250042688        7.7224366698        3.2062101951
 C        -5.4776699942        5.5241339620        1.8387994985
 H        -7.1145509837        5.4425600741        4.3778802377
 H        -8.7734361440        5.6804362924        3.9688526105
 H        -7.8939896793        7.0999443056        4.5920575025
 H        -5.9529909367        9.9916294115        1.8567304104
 H        -7.6435965744        9.8457553117        1.0599327824
 H        -5.7171325306        9.3618472189       -0.9507082706
 H        -5.3398726453       10.9699298636       -0.1155073299
 H        -9.3610371831       10.7479943601       -4.7458649124
 H        -9.8090489410       10.8244775998       -2.9724627033
 H       -10.0384174100        8.4568866788       -4.8364193982
 H       -11.4325035332        8.9077127746       -3.9948284804
 H       -12.3897674710        4.3219853127       -3.2326259347
 H       -13.0526897076        5.4779096497       -2.1258853663
 H       -12.8679944171        4.3769942400       -0.3018322800
 H       -11.7054015931        3.1633422396       -0.8627321559
 H       -11.8626332469        1.6631067910        1.1583895472
 H       -13.0323474036        0.3700092525        0.9777391909
 H       -13.8607912797        0.6151331617        3.1078680387
 H       -12.9671682352        2.0178032322        3.5635329231
 H        -9.1038956740       -2.3058161167        3.4819072752
 H        -8.7940206000       -2.1726391603        1.6512115439
 H       -10.9259133669       -4.1431707510        2.9137218814
 H        -9.2577111556       -4.5228146336        2.7028731892
 H        -9.7023634377       -4.7741180643       -3.2963518742
 H        -9.0238953563       -3.8416402815       -2.0212595072
 H       -10.7170625549       -3.6836650735       -2.2575720977
 H        -7.4835411677       -5.5475196260       -0.6640886085
 H        -7.5965626040       -5.6286189117        1.1696326811
 H        -7.6768738918       -4.0840423418        0.2189712700
 H        -9.5664547792       -6.6082765605        1.9310347807
 H        -9.2887829338       -7.6090243131        0.4001405463
 H       -10.9603377485       -6.9922281090        0.8126675790
 H       -11.0321527030       -2.9372447202        4.6108601293
 H       -12.2610236722       -1.8157849605        5.4325072051
 H       -10.7229865359       -1.2574577066        5.0089924632
 H       -13.5119158386       -1.1849703672        2.0565628162
 H       -13.8552643744       -2.1918631149        3.4146195038
 H       -12.9658127332       -2.9082075810        2.3510380498
 H       -16.7265291205        3.2712309533       -0.6915065424
 H       -15.9564554967        4.1752161455        0.5920568922
 H       -16.7244734317        2.7602312187        0.9061477298
 H       -15.0684576745        0.3524931463        0.8156349132
 H       -14.7304866477        0.5602383135       -1.0066438200
 H       -16.2266297575        0.8155195999       -0.4944977093
 H       -10.0906785682        6.2932785346       -5.3837868918
 H       -11.7140501497        6.7280764586       -4.7054728225
 H       -10.9828803461        5.0050006359       -4.8347716674
 H        -8.7679065670        4.5551495770       -3.5354214089
 H        -8.0479800339        5.9330814293       -2.6826084733
 H        -8.2235688727        5.9431576650       -4.3812995866
 H        -6.8310005314       13.2729661732       -2.5402083866
 H        -8.5287365107       12.7781092482       -2.2890657476
 H        -7.8737507918       12.7974789825       -3.8466474849
 H        -5.3631028057       10.6936860771       -4.0781088100
 H        -5.2016363484       10.1942179076       -2.5530679548
 H        -5.0579452196       11.8598377127       -2.8528128096
 H        -5.1187459603        7.1028210797        4.1322666217
 H        -6.0208610624        8.6296987878        3.6517099164
 H        -4.4940233959        8.1570079949        2.8831126391
 H        -5.6042232044        4.9604835404        2.8257619648
 H        -4.5080715472        5.5319102502        1.5648523105
 H        -6.1490448668        5.0099902613        1.1263831274
 Na       -8.6416611205        6.4559335071       -0.4769234222
