117

 C        -8.0664928865        6.4805125794        4.0872641544
 C        -7.7881318166        6.5445350283        2.5748666049
 O        -8.5391670701        6.1171072791        1.6934123380
 C        -6.4200639073        7.1087640364        2.0075635949
 C        -6.4821141208        8.0369106652        0.7573641600
 O        -6.5059643305        7.4233665567       -0.3172871331
 C        -6.2706462516        9.5168392685        0.9674081629
 C        -5.9408121522       10.0513610680       -0.4736496755
 C        -7.0677715545       10.8840655999       -1.1213401438
 O        -8.0016249093       11.4306570416       -0.5129762474
 C        -6.9350331206       10.9992149373       -2.6923485639
 C        -7.8086760084        9.7666781454       -3.2283328365
 O        -7.3708092406        8.6382271265       -3.2167184094
 C        -9.4226327163       10.0325847438       -3.5912368807
 C       -10.2259531666        8.8193300058       -3.9315564093
 C       -10.1413413527        7.8468956400       -2.7549376672
 O        -9.9252280415        8.2866547111       -1.6490121434
 C       -10.2505067096        6.2599011379       -3.1123910874
 C       -10.7962766512        5.2979913090       -2.0519741472
 O       -10.2079616291        5.1563697717       -0.9981791607
 C       -12.1638668212        4.6734323583       -2.2771257352
 C       -12.7193422317        4.0907468450       -0.9109044327
 C       -13.8274065611        3.1126101759       -1.2888128712
 O       -14.1324813798        2.8381335608       -2.5041298423
 C       -14.6522564752        2.4567661240       -0.1019356076
 C       -13.7077559839        2.6474630219        1.1908598118
 O       -13.9019003798        3.5963585955        1.8495465085
 C       -12.7024966795        1.5110606905        1.6239443084
 C       -13.1183207201        1.0060503872        3.1117581250
 C       -12.0487292902        0.1205776913        3.6287261513
 O       -11.1430198681        0.7072944238        4.2229541401
 C       -11.8740488020       -1.4294940038        3.3718389731
 C       -10.7668348520       -1.6504582124        2.3139908331
 O       -10.6248031100       -0.8877299615        1.4240280261
 C        -9.6693148912       -2.6819658257        2.6338121880
 C       -10.1459223284       -4.1708895745        2.6212070844
 C       -10.4050777668       -4.5195303774        1.1002044147
 O       -11.1662419195       -3.7083003160        0.5693772258
 C        -9.6650064354       -5.6189303446        0.4670541787
 C       -10.0908324301       -5.6779820273       -1.0923703254
 O       -10.6438880577       -6.6268733438       -1.6433191713
 C        -9.5647247765       -4.3583566381       -1.8992952932
 C        -8.0669637215       -5.2231351001        0.5154555742
 C        -9.9377852013       -6.9941485504        1.1490034967
 C       -11.8240688558       -2.1719177881        4.7307123055
 C       -13.2773322034       -1.9464819200        2.7162206161
 C       -15.9141895546        3.3417147201       -0.0588132193
 C       -14.9646255118        0.9347852320       -0.4201964978
 C       -11.1082406886        6.1109481513       -4.4480283254
 C        -8.7507058394        5.8314630308       -3.4491923023
 C        -7.6270515750       12.2633287277       -3.4944449792
 C        -5.4699425970       10.7975488886       -3.1651570724
 C        -5.5924800410        7.6452962896        3.2585054518
 C        -5.5009621834        5.8682135705        1.4439645951
 H        -7.3049721980        5.7539014483        4.3133707037
 H        -9.1708807791        6.0756746579        4.2927756935
 H        -7.7523466046        7.4202989365        4.5085019107
 H        -5.4114450849        9.6358382358        1.6748186009
 H        -7.1657234430        9.8463939730        1.3366300850
 H        -5.7928396121        9.3064829464       -1.1965601818
 H        -5.0377468077       10.7415314424       -0.3887164702
 H        -9.3678450126       10.6053068118       -4.4624186360
 H       -10.0482361693       10.5413736690       -2.7815253579
 H        -9.7662157043        8.2969315009       -4.8756014470
 H       -11.2346882427        9.0965305721       -4.1973367648
 H       -12.4240505597        3.9489870234       -2.9967793658
 H       -12.7978540648        5.5504358927       -2.6196578161
 H       -13.2043689963        4.9529939311       -0.2823912051
 H       -11.8313502568        3.6480215861       -0.4690969840
 H       -11.5635751217        1.8374729748        1.5585399186
 H       -12.7953237106        0.7098265344        0.9574330831
 H       -14.0659940825        0.7028975954        2.9608859993
 H       -13.2391869281        1.7828580730        3.8323567453
 H        -9.2858440039       -2.3949750763        3.6192346960
 H        -8.9257388969       -2.6116287390        1.9528485570
 H       -11.0180423024       -4.3536253118        3.3093347918
 H        -9.2974250630       -4.8162022009        3.1578327166
 H        -9.9795708041       -4.4938845382       -2.8772963549
 H        -8.4295867408       -4.3847477614       -2.1318317356
 H        -9.8416180736       -3.4593563994       -1.3242309838
 H        -7.2870055188       -5.9361176652        0.3306071981
 H        -7.8089425231       -4.7367867861        1.4420722942
 H        -7.9976827340       -4.3694901387       -0.1414569766
 H        -9.9268065193       -6.8739986054        2.2187731789
 H        -9.2963060462       -7.8001067837        0.7132316370
 H       -10.8151451946       -7.2786944389        0.8258227259
 H       -12.3849205433       -3.1272345551        4.5160076856
 H       -12.3275708000       -1.5775268711        5.4374735359
 H       -10.7525769092       -2.3463044098        5.0845418577
 H       -13.5096573821       -1.4828139857        1.7165465754
 H       -14.2216693953       -1.6678787049        3.3880449381
 H       -13.3506626603       -3.0569255274        2.7297338251
 H       -16.4783290939        3.0714877542       -0.9568448255
 H       -15.7337405988        4.4785805408        0.1418446501
 H       -16.5424839005        2.9252059783        0.7449219370
 H       -15.1448994432        0.6458240569        0.6315310260
 H       -14.1710298373        0.4710240121       -1.1699190173
 H       -15.8905058082        0.8634319114       -1.0173770980
 H       -10.7169503213        6.6751567125       -5.3437595353
 H       -11.9988440526        6.6004270474       -4.1624440903
 H       -11.2086824397        5.0655520807       -4.7704375468
 H        -8.4363238103        4.8253512532       -3.2477169098
 H        -8.0386346720        6.5402963854       -3.0009892924
 H        -8.4746281762        5.9797730949       -4.4987685417
 H        -7.0905584470       13.1798982165       -3.0814978698
 H        -8.7006382051       12.4373952286       -3.2619881293
 H        -7.5916595962       12.0776309029       -4.5847729903
 H        -5.2513593949       11.4049020982       -4.0852091187
 H        -4.8729189145        9.8986348358       -3.4284451955
 H        -4.7963934156       11.3451186371       -2.5326840344
 H        -5.3704285625        6.9788693675        4.0069535573
 H        -6.0793854249        8.4331529138        3.6743065286
 H        -4.5337563915        7.9966668461        3.0604937369
 H        -5.4032279295        5.0476718226        2.0862900839
 H        -4.4663549629        6.4713345787        1.4378869912
 H        -5.6961106991        5.6228977669        0.4112950984
 Na       -8.5222426537        6.5872373687       -0.6945946243
