117

 C        -8.1891707698        6.5783142599        3.9316188302
 C        -7.7343321485        6.4330731912        2.4642320747
 O        -8.5593773529        5.9995739330        1.7182578206
 C        -6.3224990301        7.0027053157        1.9715976471
 C        -6.5032252210        8.0088498863        0.7526853278
 O        -6.6770262044        7.5594426758       -0.3254142885
 C        -6.1678523982        9.5585887520        0.8782716661
 C        -5.8452599189       10.2143726395       -0.6628067071
 C        -6.9582517449       11.0238781834       -1.2888986890
 O        -7.8874987393       11.4538645454       -0.6642890236
 C        -6.9011766346       10.9686199677       -2.9696499831
 C        -7.7131674732        9.6477217004       -3.2619967820
 O        -7.2532843513        8.5742488774       -3.2041937202
 C        -9.2357879042        9.9498474231       -3.4560653362
 C       -10.1441753629        8.7548746533       -3.9012705746
 C       -10.2095335605        7.8041957781       -2.7581949143
 O        -9.9339325227        8.1427375463       -1.6095266959
 C       -10.3419145736        6.3012823008       -3.1590107022
 C       -10.8188681604        5.4889773009       -1.9868812576
 O       -10.1011304488        5.1446847137       -1.0481095186
 C       -12.0769285269        4.7212171739       -2.1697779755
 C       -12.8846045117        4.2134644745       -0.9195294627
 C       -13.8028262382        3.1707709240       -1.3720626407
 O       -14.1647654485        3.1181136382       -2.5512089475
 C       -14.5504049559        2.4586345032       -0.1553140426
 C       -13.8471593977        2.6276257073        1.2110887898
 O       -14.0624582062        3.6539699760        1.8345616566
 C       -12.8873085309        1.6424921621        1.8113596094
 C       -13.2350369377        0.9835023775        3.1184373434
 C       -12.0764735973        0.1850274348        3.5966983337
 O       -11.0354430883        0.6955152529        4.1075910716
 C       -12.1007595655       -1.4910798740        3.3876161408
 C       -10.7163598960       -1.6941235353        2.5033472638
 O       -10.4561017417       -0.9534335750        1.5665882578
 C        -9.5908065508       -2.7453393182        2.7841715793
 C       -10.1762169118       -4.2323276584        2.7571743246
 C       -10.4460158903       -4.5612475116        1.2021869597
 O       -11.1894681268       -3.8652042457        0.5657797179
 C        -9.6121760696       -5.6863054824        0.5535694730
 C       -10.0652163191       -5.7185657330       -0.9311379059
 O       -10.7519962821       -6.5312119997       -1.4265332922
 C        -9.5315823844       -4.5027632823       -1.8055649666
 C        -8.1260092800       -5.3803651926        0.7924782574
 C        -9.9957185622       -7.0500301566        1.1193873498
 C       -12.0542191526       -2.2309576585        4.7062184114
 C       -13.4068703340       -1.9904344026        2.6449325641
 C       -15.6982008110        3.4439281677       -0.0133233247
 C       -14.7826684088        0.9511412415       -0.6333886521
 C       -11.1358374228        6.0936604346       -4.4823644417
 C        -8.8846760149        5.8973658754       -3.6214096000
 C        -7.4523620436       12.3397513517       -3.5272685721
 C        -5.4887556205       10.7172824304       -3.4219186544
 C        -5.6921679886        7.7355828055        3.2418018926
 C        -5.5037998008        5.8050838556        1.5112548538
 H        -7.5546030360        5.8956775123        4.5356372878
 H        -9.2031102771        6.3593697475        3.9047956601
 H        -7.9409296322        7.6222645450        4.2233894553
 H        -5.1769369257        9.6795985874        1.4354867785
 H        -7.0180387384       10.0016669435        1.3720785229
 H        -5.3120948128        9.6433953611       -1.3150338812
 H        -5.2900434705       11.0327752628       -0.3730658910
 H        -9.2798521862       10.8053200438       -4.0648398629
 H        -9.6994379224       10.1796465737       -2.4455487232
 H        -9.6655300001        8.1297767641       -4.6408508263
 H       -11.1326427238        9.0616972896       -4.3223256202
 H       -11.8398966911        3.8221922624       -2.7598054435
 H       -12.7947633207        5.1870204628       -2.8426563750
 H       -13.4037884436        5.0748001454       -0.5668498789
 H       -12.1455568292        3.8072538497       -0.1918547842
 H       -12.0637751973        2.2734239490        2.0842734727
 H       -12.4593177745        0.9810867276        1.0666868220
 H       -14.0854735738        0.3832468456        2.8873465891
 H       -13.5651331613        1.6969970468        3.8214160416
 H        -9.1053379942       -2.4212108574        3.7282834496
 H        -8.8317701302       -2.6775500604        1.9419838929
 H       -10.9660882659       -4.2730131011        3.5509013802
 H        -9.4589017886       -4.9670489709        3.1804772564
 H       -10.4489773837       -4.3998753028       -2.4497760137
 H        -8.7025608469       -4.6710818197       -2.5944241356
 H        -9.3202724349       -3.6886940546       -1.1237679270
 H        -7.4136316436       -6.1848860199        0.7968702798
 H        -7.9925288389       -4.9367381512        1.8217417071
 H        -7.8069477687       -4.5089615916        0.2102267454
 H        -9.9759348980       -7.0880867838        2.1494866075
 H        -9.4747379695       -7.8937389007        0.6046878548
 H       -11.0360895454       -7.1753149569        0.5782083044
 H       -12.4990562857       -3.1923326141        4.6202194051
 H       -12.5571041855       -1.6251431502        5.5490524275
 H       -10.9941401455       -2.2750959308        4.9043693815
 H       -13.4043518371       -1.6473862237        1.5292671719
 H       -14.3824036681       -1.6344094986        3.0544269563
 H       -13.4655047193       -3.1286558765        2.6823424951
 H       -16.3547175296        3.2821081058       -0.9340065324
 H       -15.3001019267        4.4690776870        0.0501788283
 H       -16.3517631233        3.2262152388        0.9414216929
 H       -15.4679556613        0.6780513845        0.1702951394
 H       -13.8815273462        0.4000886877       -0.8000435193
 H       -15.2772361693        1.0028718150       -1.5876309674
 H       -10.8258153885        6.8675677366       -5.2078766235
 H       -12.1618682717        6.3180344579       -4.3467913996
 H       -10.9150709187        5.1169658471       -4.9042394584
 H        -8.6104442820        4.9540507955       -3.1180163557
 H        -8.0626698914        6.5959019382       -3.3929925198
 H        -8.7035591465        5.6399388204       -4.6649926771
 H        -6.6143916551       13.0156969532       -3.1003791155
 H        -8.2926883962       12.7032938081       -2.8367306218
 H        -7.8236463765       12.4313780410       -4.5293785198
 H        -5.1749401128       11.3737363734       -4.2890809976
 H        -5.2724425043        9.7707612694       -3.8537121243
 H        -4.6203905665       10.8511864473       -2.8021613126
 H        -5.4405097564        7.1493851058        4.0706213135
 H        -6.3029700872        8.5739972356        3.5254413118
 H        -4.7292483307        8.0602123193        3.0800722772
 H        -5.3006725232        5.1008028102        2.3613905100
 H        -4.6155107854        6.1508737315        1.1208250609
 H        -6.0627345948        5.3808529326        0.6628527375
 Na       -8.4931278335        6.6803498406       -0.5866600769
