117

 C        -8.3787514367        6.9761647088        3.7116962218
 C        -7.7516468209        6.6849117728        2.3651737602
 O        -8.3139760232        6.0017246577        1.5404128610
 C        -6.3300145046        7.3279702961        1.9618869504
 C        -6.4286732996        8.2415198968        0.5732621664
 O        -6.7192218429        7.6927682485       -0.4449583545
 C        -5.8869505336        9.7434085179        0.7073051836
 C        -5.2226216253       10.1147164962       -0.6810966588
 C        -6.4362896732       10.8778408161       -1.5113541694
 O        -7.3584377768       11.2740907857       -0.7965651454
 C        -6.5446636790       10.9128198730       -3.0474081700
 C        -7.5296372587        9.8367718674       -3.4185348889
 O        -7.3416023121        8.6383253144       -3.4991873005
 C        -9.2688872617       10.1162294345       -3.3220588545
 C       -10.0515203768        8.9082638814       -3.8137784511
 C        -9.9279535770        7.7822217414       -2.8830182037
 O       -10.1394689377        8.0050523342       -1.6896503354
 C       -10.1229386037        6.2724699322       -3.4589909559
 C       -10.7624143699        5.3724804973       -2.2718434239
 O       -10.0786352799        5.0145125287       -1.3141394292
 C       -12.1738201060        4.8864426561       -2.3350540905
 C       -12.6785394561        4.3520044297       -0.9223318398
 C       -13.9119256831        3.4216263781       -1.1136291569
 O       -14.2150814914        3.2212094472       -2.3376530625
 C       -14.7627373290        2.5998542796       -0.0534525819
 C       -14.1693603096        2.8483914042        1.3640259394
 O       -14.2674650446        3.7604097049        2.1141031942
 C       -13.0200903113        1.7892244795        1.6203639102
 C       -13.3817050436        0.9686229317        2.9071689329
 C       -12.2061705962        0.2166971362        3.4672965172
 O       -11.2157348232        0.6530899930        4.1480402196
 C       -12.2203114095       -1.5022690063        3.2955949715
 C       -10.7344426425       -1.8533789330        2.8105357336
 O       -10.2820870656       -1.2605834637        1.8597917518
 C        -9.8774402688       -2.9662288944        3.4042453583
 C       -10.3483924027       -4.4309580553        3.0517754742
 C       -10.4616682235       -4.7251115632        1.5345509831
 O       -11.3644512504       -4.1941210022        0.9204823434
 C        -9.6859131206       -5.9283617217        0.8333275049
 C       -10.1341369329       -5.8091379459       -0.6954293141
 O       -10.9275395881       -6.5625908990       -1.1276379989
 C        -9.1940828679       -4.7284465353       -1.5343048078
 C        -8.1708167424       -5.7756231417        1.0007682014
 C       -10.3253561508       -7.1354949629        1.5445282308
 C       -12.5314719028       -2.0111937726        4.6744425613
 C       -13.1612274167       -2.1475192871        2.2689132348
 C       -16.3822334620        3.0182816861       -0.1036761082
 C       -14.7758933779        1.0360627650       -0.5709975976
 C       -11.0188755003        6.3974829637       -4.7871848407
 C        -8.8284143167        5.6473752931       -3.9752572521
 C        -6.9362893885       12.4295618966       -3.6399000632
 C        -5.2519513732       10.5675530832       -3.6944873794
 C        -5.6447075626        8.0769044357        3.1460521555
 C        -5.5666208661        6.0819908320        1.4882354281
 H        -7.5837038191        6.7148024368        4.4296365988
 H        -9.3424734441        6.4750806664        3.6933684046
 H        -8.5241404968        8.0953236387        3.8247902382
 H        -5.2479762844        9.9054244007        1.6104932648
 H        -6.7116241669       10.3491372690        0.7042084737
 H        -4.6769000713        9.3834876387       -1.2912527500
 H        -4.5669770480       11.0807742621       -0.5589161896
 H        -9.6584968955       10.9062058157       -3.8255495510
 H        -9.3707422467       10.3157761713       -2.1825968518
 H        -9.7083528198        8.6729546798       -4.8793494057
 H       -11.0757567398        9.2328545360       -3.8743795536
 H       -12.2291054723        4.0545449188       -3.0160704786
 H       -12.8145238150        5.6042949829       -2.9289581753
 H       -12.8089151698        5.2746688651       -0.2504466096
 H       -11.8146009246        3.8035183189       -0.4376816322
 H       -12.0021184731        2.2799950229        1.9456118347
 H       -12.6598999215        1.1992196472        0.7860951640
 H       -14.1399368334        0.2764566876        2.6530519118
 H       -13.7480321512        1.7218229132        3.6288444575
 H        -9.7673550687       -2.7845228910        4.4518602974
 H        -8.9600999589       -2.9259294049        2.9623912447
 H       -11.3546198955       -4.5315917709        3.4572424788
 H        -9.8335260473       -5.1857028308        3.7738511183
 H        -9.5723895871       -3.8153083127       -1.1402281833
 H        -9.5918099076       -4.7116877553       -2.5766351848
 H        -8.1550840944       -4.8138502711       -1.4920788869
 H        -7.6824699445       -6.3849120016        0.2889288233
 H        -7.7869026582       -6.2462950157        1.9092616099
 H        -7.8405616515       -4.7645856079        1.0954800555
 H       -10.0035896219       -7.2707967461        2.4501753172
 H        -9.9221722074       -7.9903692148        0.9571698763
 H       -11.4093348510       -7.1373626494        1.2922496244
 H       -12.0125040834       -2.9541723363        4.7671403166
 H       -13.5626988056       -2.3715523444        4.6266593763
 H       -12.2779412859       -1.3244149332        5.4919318024
 H       -13.3346207729       -1.4598733148        1.4051391553
 H       -14.2058281395       -2.2137944825        2.6105064367
 H       -12.7060578784       -2.9293884916        1.7390368235
 H       -16.6398891698        3.1780723500       -1.1020337575
 H       -16.4991203332        3.9370745968        0.3771735541
 H       -16.9756725075        2.2692736006        0.3917646876
 H       -15.7757528463        0.4502116899       -0.7154071222
 H       -14.1516589403        0.4653990096        0.1709177882
 H       -14.2497548296        1.0960676223       -1.5780739797
 H       -10.3356388483        6.7328472976       -5.6030502563
 H       -11.7512997586        7.1641469425       -4.8854151623
 H       -11.3968089158        5.3814566644       -4.9507815968
 H        -8.1376761800        5.1648075408       -3.3395720558
 H        -8.2457058640        6.4149919289       -4.4965689037
 H        -9.0288866362        4.9337064151       -4.7847552177
 H        -6.1414351174       13.2014132098       -3.3327657233
 H        -7.9322776319       12.6694957974       -3.3001554550
 H        -6.9482157856       12.3266085520       -4.6666996182
 H        -5.3721913899       10.2583624904       -4.7717916715
 H        -4.4375403774       10.0378104869       -3.2694379745
 H        -4.6867326127       11.4391979886       -3.9904182383
 H        -5.6982274599        7.3989548443        4.0163516056
 H        -6.2946917195        8.9208126426        3.4305154948
 H        -4.5607193775        8.3097978836        3.2460984353
 H        -5.5905424806        5.4588302965        2.3890525810
 H        -4.5341704642        6.3327487010        1.3106005665
 H        -5.9945545559        5.6239823629        0.5715758737
 Na       -8.7400060299        6.6363051925       -0.4582862805
