117

 C        -8.3017325251        7.6477638586        3.5625558764
 C        -7.6701082604        7.0804100176        2.3113810089
 O        -8.2682117055        6.3888874065        1.5367930132
 C        -6.2016760520        7.5405204022        2.0225162364
 C        -6.3072182581        8.3502635786        0.7239345378
 O        -7.0911911314        8.2922415894       -0.2327517084
 C        -5.1569578888        9.4652868338        0.5437944340
 C        -5.0748089500        9.9171658094       -0.8938431324
 C        -6.3022754054       10.7266837184       -1.6293740784
 O        -7.0372625472       11.3507722441       -0.9291550954
 C        -6.3390085659       10.7084297473       -3.1761288727
 C        -7.4611887804        9.7521631385       -3.6159360367
 O        -7.1437366041        8.6144897226       -4.0972925970
 C        -8.9360743817       10.1005897012       -3.4000936926
 C        -9.9105093006        9.0784353577       -3.9890248651
 C        -9.9583286058        7.9074165445       -3.0412397477
 O        -9.7470170953        7.9980066506       -1.8481129284
 C       -10.3230350839        6.4999419797       -3.5388288991
 C       -10.9402517882        5.3991777650       -2.4855926259
 O       -10.2486314218        4.7687631652       -1.7057770518
 C       -12.4884395568        5.1815927335       -2.4121931383
 C       -12.7690080628        4.1036390442       -1.3512158132
 C       -14.1212784411        3.3010084340       -1.4399405980
 O       -14.7641698051        3.3079017874       -2.5283586291
 C       -14.8509331579        2.6059593805       -0.1182821841
 C       -14.0980448318        2.8801951108        1.3908399400
 O       -14.5883438078        3.7382164585        2.0334975655
 C       -12.8303103616        2.1143720341        1.8572633127
 C       -13.3703272152        0.9265126600        2.6859755988
 C       -12.2768504732        0.1601895725        3.3119740442
 O       -11.5673042901        0.6425570182        4.1996401127
 C       -12.2913413296       -1.4303370511        3.2311986484
 C       -10.8356027921       -1.9949564928        2.9957605499
 O       -10.1740034538       -1.5775482483        2.0839529190
 C       -10.2461028951       -3.0935812433        3.8860381020
 C       -10.5062793878       -4.6334195259        3.4397796436
 C       -10.6074632879       -4.8650753573        1.8977312370
 O       -11.2977404900       -4.0795222837        1.3007696487
 C        -9.9266058464       -6.0859423243        1.1903888448
 C       -10.0977180087       -6.0271708872       -0.3987807976
 O       -10.9133027340       -6.7340705782       -0.9244440813
 C        -9.1893709039       -5.0373648967       -1.2405208784
 C        -8.4109717213       -6.0800012481        1.7270590805
 C       -10.5035883973       -7.5125726083        1.6059889265
 C       -12.7685489390       -2.0690385115        4.5004455669
 C       -13.0759263804       -2.0330458336        2.0314595095
 C       -16.2144341173        3.2364661248       -0.1044159868
 C       -14.9020117459        1.1048223689       -0.4126387770
 C       -11.2155967782        6.3136911623       -4.8179757006
 C        -8.8464018474        6.0424429120       -3.8918720169
 C        -6.6817247333       12.2398726513       -3.5312231861
 C        -5.0543894134       10.2540445223       -3.8142117236
 C        -5.5354361445        8.3328095573        3.1934305128
 C        -5.2928131869        6.3626474258        1.7707988800
 H        -7.6163551497        7.3725840925        4.3052976645
 H        -9.3751505347        7.4198199448        3.6038080969
 H        -8.2958233573        8.7181914900        3.4943252231
 H        -4.1432758480        9.1188398593        0.8436889678
 H        -5.4695090118       10.4146021727        1.1019986838
 H        -4.7674295469        9.1748691219       -1.6564858695
 H        -4.0582244091       10.5704138507       -1.0381435534
 H        -9.0232607670       11.1143307684       -3.7369712372
 H        -9.1146430398       10.1084919359       -2.3013913218
 H        -9.6374755199        8.7274318222       -5.0020776020
 H       -10.8498806045        9.5431320992       -4.0044886135
 H       -13.0467418362        4.9379662592       -3.3187298919
 H       -13.0389416061        6.1236058070       -2.1547505812
 H       -12.7054074754        4.4247678876       -0.3035755390
 H       -12.0128093092        3.4254274654       -1.4277014721
 H       -12.3137998520        2.7502561103        2.6848182000
 H       -12.0872489978        1.8189021054        1.1975575286
 H       -13.9530997808        0.3038660647        1.9661275262
 H       -14.0556580151        1.4128346995        3.5263970614
 H       -10.5579770784       -3.0517353019        5.0259142351
 H        -9.1396554782       -3.0310606843        3.8847934496
 H       -11.4604817126       -4.8360778537        3.7974317396
 H        -9.8552049184       -5.1342575678        4.1665818707
 H        -8.1884028342       -4.8376634711       -0.9361528935
 H        -9.7986623235       -4.0875586876       -1.2932630078
 H        -9.2896342091       -5.5424503702       -2.1927344865
 H        -7.8118319224       -6.9145798019        1.2516722900
 H        -8.4253337252       -6.2647626693        2.8199355112
 H        -7.9005435929       -5.0892223087        1.5074118707
 H       -10.3878307779       -7.4456932452        2.6304528436
 H        -9.7973669963       -8.4165714336        1.3655022967
 H       -11.5692268180       -7.5768689310        1.3555569616
 H       -13.0545612035       -3.1125236678        4.2969661324
 H       -13.6125713106       -1.5913149706        4.8447337848
 H       -11.9438162770       -2.0215327411        5.2092878929
 H       -12.6531694284       -1.7640239958        1.0876769727
 H       -14.1060491413       -1.5754665493        1.8910804152
 H       -13.0984790391       -3.0723909823        1.8895915912
 H       -16.8866884793        2.8611544890       -0.8643073459
 H       -16.2409852792        4.3510982348       -0.0831198865
 H       -16.5347001798        2.8217547765        0.8727548896
 H       -14.9783514641        0.9161231953       -1.4551312633
 H       -15.7790202949        0.7283481352        0.0481777386
 H       -14.0107380004        0.6352874149       -0.2914769132
 H       -11.0395357025        7.0266544879       -5.6527432820
 H       -12.2537172215        6.4229117724       -4.5454223833
 H       -11.0705953716        5.2863875961       -5.1627955726
 H        -8.0279846661        6.7086525142       -3.6704136137
 H        -8.7691100285        6.0235162001       -4.9914143096
 H        -8.5107282715        5.0528356862       -3.5434219957
 H        -5.7146664890       12.8174702374       -3.5086027101
 H        -7.3308571820       12.5582920952       -2.7611020741
 H        -6.9836552882       12.3950866042       -4.4924507830
 H        -4.9631402001        9.4148222581       -4.4684164683
 H        -4.1965618490       10.3680369487       -3.1959682564
 H        -4.7411152920       10.9526716294       -4.5621604786
 H        -5.6002130568        7.8760318191        4.1784134849
 H        -6.0067054858        9.3073460274        3.3042669393
 H        -4.5047631666        8.6961672921        2.8349969943
 H        -5.1643995787        5.8124140257        2.6634301835
 H        -4.3129857352        6.8789045776        1.6085796771
 H        -5.5386698675        5.8051631576        0.8742154340
 Na       -8.5874515284        6.2719615719       -0.6646060202
