117

 C        -8.4204474268        8.0404487033        3.6245735407
 C        -7.8081859619        7.4146187296        2.3677294998
 O        -8.3226913840        6.5760066711        1.6625443420
 C        -6.2277577238        7.7530352239        2.0469614141
 C        -6.1852512608        8.5632843137        0.7103011303
 O        -6.9309954177        8.3465615241       -0.2424457101
 C        -4.9181262124        9.4116955979        0.4246016804
 C        -4.7838236545        9.4888045606       -1.1888058823
 C        -5.9638363598       10.3907981505       -1.7856788148
 O        -6.7657117968       11.0022759443       -1.1543960249
 C        -6.1657681966       10.6777154263       -3.4188421453
 C        -7.3475578514        9.7255147718       -3.7935709158
 O        -7.1538209877        8.6111199025       -4.4085752047
 C        -8.7322378442       10.1569630630       -3.4622028419
 C        -9.8304717074        9.0313023911       -3.8040363412
 C        -9.9734335013        7.7578803393       -2.9663607662
 O        -9.6768656214        7.8114808933       -1.8284403929
 C       -10.3465338685        6.3339478263       -3.6095108369
 C       -10.9682829717        5.5787171185       -2.4193975602
 O       -10.2002641695        5.3701709410       -1.5196854044
 C       -12.3661667576        4.9218663776       -2.4684252379
 C       -12.6857111536        3.9282184032       -1.2934335307
 C       -14.1350729840        3.4707503607       -1.4338648001
 O       -14.6677834494        3.6847548382       -2.5306574663
 C       -14.8746474760        2.7005584740       -0.2964451786
 C       -14.0927215913        3.0126054764        1.0875188447
 O       -14.3407880569        3.9847747883        1.7920060935
 C       -12.9445432068        2.0415188038        1.6952423323
 C       -13.4575576685        0.9458391424        2.6881123560
 C       -12.3112619191        0.0357313955        3.2165349272
 O       -11.4277704053        0.5045601374        3.8710417334
 C       -12.4770831597       -1.6529430526        3.1131842952
 C       -11.0090613904       -2.1069772062        3.1244465256
 O       -10.2729244611       -1.4718082782        2.4181399086
 C       -10.4071183223       -3.3278156032        3.9008766001
 C       -10.9715986490       -4.7308108372        3.5365534389
 C       -10.7261060395       -4.8995168734        2.0115522831
 O       -11.0604858015       -4.1068985905        1.1853670301
 C       -10.0512700534       -6.2571212389        1.6024836517
 C       -10.1141774864       -6.3044509755        0.1023403078
 O       -10.8593250857       -6.8861696738       -0.6886160445
 C        -9.1771567021       -5.1135325015       -0.5204352980
 C        -8.4205127654       -6.3924901706        2.0775428397
 C       -10.7941963279       -7.4244657977        2.3257464270
 C       -13.2283469272       -2.0083867171        4.4581491871
 C       -13.2613157085       -2.0019503278        1.8526610541
 C       -16.2621304112        3.3492361416       -0.0889211158
 C       -14.9416514115        1.2173538167       -0.7014282471
 C       -11.4369165288        6.7667957917       -4.7047110318
 C        -9.1297154011        5.5521339105       -4.2748899381
 C        -6.7288221649       12.1415926015       -3.6770530188
 C        -5.0166472362       10.3123297329       -4.2875708794
 C        -5.4610942515        8.5827396481        3.1889038344
 C        -5.3715352333        6.5172591580        1.9129836098
 H        -7.9250503235        7.5964992988        4.5081664143
 H        -9.5806277003        7.9896494735        3.5273687945
 H        -8.3112674224        9.1242735713        3.5398476893
 H        -4.0316645292        9.0350545073        0.7637321147
 H        -5.1901108056       10.3390581713        1.0225489961
 H        -4.6173896207        8.6444254381       -1.6676229231
 H        -3.9366709142       10.0155475166       -1.5959998607
 H        -8.8922230061       11.0972838765       -4.1700605473
 H        -8.7594247488       10.5429996061       -2.4713058037
 H        -9.6359482423        8.7370611127       -4.8445172948
 H       -10.8503292109        9.5274071752       -3.7239601555
 H       -12.4851821985        4.3908190894       -3.4486341900
 H       -13.2740817075        5.4898634980       -2.4405398845
 H       -12.4566894472        4.2059078013       -0.2127381764
 H       -11.9804084157        3.0809235477       -1.3527308891
 H       -12.1670436697        2.6286787512        2.2050870342
 H       -12.5278924572        1.5561614014        0.8720257704
 H       -14.2810351914        0.4599045103        2.2960419797
 H       -13.7245839704        1.5581311508        3.5444139435
 H       -10.5085086639       -3.0404500449        5.0086921655
 H        -9.3340327243       -3.3675598967        3.6870083787
 H       -12.0386301485       -4.6837666038        3.9129306115
 H       -10.3664211926       -5.4470772655        4.0908336330
 H        -8.5004237150       -5.5901251951       -1.2242146657
 H        -8.6159778907       -4.5086110033        0.2438268928
 H        -9.9800586057       -4.4856180678       -0.9782076427
 H        -8.0073602167       -7.2505194054        1.5574425383
 H        -8.3861824948       -6.5137131926        3.1031908706
 H        -7.7652832586       -5.6600937308        1.6727137215
 H       -10.7175468560       -7.3044258124        3.4060811393
 H       -10.1569945502       -8.3043772601        1.8662927263
 H       -11.8617648906       -7.4325396909        2.2085419331
 H       -12.8552027504       -3.0190391741        4.8767709689
 H       -14.2661673442       -1.9262715599        4.3848742079
 H       -12.8327554417       -1.2479884486        5.2026952351
 H       -12.8151362098       -1.5251922366        0.9953845608
 H       -14.3691695329       -1.7920350793        1.7545316770
 H       -13.3067385148       -3.0777035802        1.5153912997
 H       -16.8005411715        3.0822823479       -0.9862806875
 H       -16.0011988167        4.4533626102       -0.1531891447
 H       -16.9167672490        3.0639303500        0.7549803463
 H       -14.7510713221        1.0477401128       -1.7716779574
 H       -15.9572524722        0.6984067676       -0.4678162928
 H       -14.0433909065        0.6652514863       -0.3870372104
 H       -10.9114604355        7.1558190502       -5.5550635026
 H       -12.0798967709        7.5054790484       -4.1704583275
 H       -12.1690466387        6.0669077192       -5.0884137662
 H        -8.4167308168        6.1433576083       -4.8444649558
 H        -9.3491602923        4.6617993430       -4.8597078487
 H        -8.5397596852        5.2573515446       -3.4007678594
 H        -5.9792905599       13.0129266421       -3.4109480691
 H        -7.6176499035       12.2042079385       -3.0008965374
 H        -6.7875079396       12.3035086391       -4.7574620822
 H        -4.1138602156        9.9959915487       -3.7384144348
 H        -4.5890377272       11.1059915215       -4.9573695828
 H        -5.0787380038        9.4319632531       -4.8960590882
 H        -5.6406657491        8.0330845429        4.0468106582
 H        -5.8373687662        9.4966793568        3.4101752214
 H        -4.3680142327        8.7664184102        2.9704804317
 H        -5.1102030579        6.1710206072        2.8738861671
 H        -4.4447273736        6.6066616032        1.1866653319
 H        -6.0715751490        5.8306249449        1.4790281432
 Na       -8.3004397179        6.2822355966       -0.6051981462
