117

 C        -8.3147203389        8.4442649974        3.5502096344
 C        -7.6837227451        7.7868000375        2.3211304706
 O        -8.4336994722        6.9100084600        1.8526562270
 C        -6.2189670518        8.0301485766        1.9218224436
 C        -5.9879985271        8.3999702455        0.3730805730
 O        -6.6141156375        7.8928150274       -0.5326910471
 C        -4.7711113603        9.3317933857        0.1006820564
 C        -4.6654145048        9.4558025697       -1.4545784028
 C        -5.8424848178       10.2415349931       -2.0301517204
 O        -6.6265147185       10.7382329166       -1.2570566460
 C        -6.0462812791       10.5850016140       -3.5867128683
 C        -7.2997799825        9.6676913872       -3.8759460847
 O        -7.0492430982        8.6105074353       -4.4447809359
 C        -8.7662421733       10.1628258498       -3.5358629237
 C        -9.7383506706        9.0397796454       -3.9109460940
 C        -9.6426786992        7.7308791607       -3.0135986490
 O        -9.0663187021        7.7539774593       -1.9700406934
 C       -10.4783269577        6.4831631890       -3.5352393597
 C       -10.7870295307        5.5185750015       -2.2845282962
 O       -10.1309184542        5.4259409720       -1.3072033135
 C       -12.0083436899        4.5102842484       -2.4243256862
 C       -12.7190237233        3.9270747597       -1.1283192372
 C       -14.1868507414        3.6996443508       -1.4995845634
 O       -14.7713276236        4.0029098365       -2.5125449227
 C       -14.9204490533        2.7016614726       -0.3076689075
 C       -13.9442593474        2.8845524528        0.8750674111
 O       -13.7187904069        4.0311239180        1.4323557808
 C       -13.1860323813        1.6501761948        1.3051812575
 C       -13.6928081490        0.9245428793        2.5722040067
 C       -12.4676462750        0.0809566360        3.1185939683
 O       -11.5949482510        0.8050186590        3.4145288448
 C       -12.6760688919       -1.5293155868        3.1022420994
 C       -11.1292740057       -2.0893428498        3.2312392921
 O       -10.3182150214       -1.5642017251        2.5095988335
 C       -10.6748405542       -3.2084453110        4.2609777780
 C       -11.2611750460       -4.5689544967        3.8512902867
 C       -10.8795394255       -4.8863167046        2.3192767083
 O       -10.9702156884       -4.1018041183        1.4240291661
 C       -10.2279112689       -6.3168360902        1.9415289022
 C       -10.0293602461       -6.4966570412        0.4504461908
 O       -10.6407172606       -7.4264667311       -0.1251418026
 C        -9.0962071564       -5.5554796625       -0.4185194127
 C        -8.7621979611       -6.4426175173        2.7634390714
 C       -11.2250646706       -7.4681969750        2.2605342043
 C       -13.6605804466       -1.8638204903        4.2542739452
 C       -13.1816860824       -1.9182017282        1.7372436168
 C       -16.2443281466        3.4012710346       -0.0626558874
 C       -14.8758107365        1.2869608970       -0.8603629572
 C       -11.7882887695        6.8892761224       -4.1942951536
 C        -9.4197514878        5.6449124459       -4.3307590904
 C        -6.3778505346       12.1176844163       -3.8298804963
 C        -4.8590130407       10.1133697361       -4.4124005485
 C        -5.4918603742        8.9734201456        2.7839800573
 C        -5.6157533366        6.5640741475        2.0383046541
 H        -7.7042344111        8.1218971808        4.3771811477
 H        -9.3714981051        7.9664027498        3.7497745432
 H        -8.4276197490        9.5003073176        3.4359008788
 H        -3.9763045376        8.7873579679        0.5687476046
 H        -4.7539088898       10.3802411612        0.5351977718
 H        -4.7866349653        8.6297902792       -2.0696758936
 H        -3.7827416870        9.8549977748       -1.9193365067
 H        -9.0727422348       11.1934832948       -4.0337806977
 H        -8.7293103305       10.3659624474       -2.5077084495
 H        -9.4220135105        8.8494020132       -4.8923241153
 H       -10.8081303388        9.3857428774       -3.9525332165
 H       -11.7623479937        3.7048317250       -3.1722121124
 H       -12.8809957584        5.0545009520       -2.7601049823
 H       -12.6915059882        4.6698300484       -0.3200780401
 H       -12.1690996896        3.0487764355       -0.6426454820
 H       -12.1818113949        2.0442185625        1.5656937232
 H       -13.0992992476        0.7710075089        0.5734758161
 H       -14.6207474380        0.4152615703        2.2939409598
 H       -13.8927357165        1.6419447949        3.3746168846
 H       -10.9609564153       -2.8380209576        5.1838073180
 H        -9.6183287483       -3.1774503795        4.3140435463
 H       -12.3884401789       -4.3146915461        3.7676695298
 H       -11.0487209589       -5.3527687411        4.5325866250
 H        -9.3533843849       -5.8902272290       -1.3654611399
 H        -8.0676680963       -5.6698786243       -0.2446596413
 H        -9.3936180969       -4.5425923710       -0.2169137869
 H        -8.1739074749       -7.4143282194        2.6043095770
 H        -9.1199147151       -6.2350056912        3.7718627154
 H        -8.0176965199       -5.7203646425        2.3359020032
 H       -11.4017437713       -7.5814707086        3.3241476627
 H       -10.6966941067       -8.2328969101        1.6959452053
 H       -12.1138617312       -7.4006777542        1.7768312812
 H       -14.2360276266       -2.7519484527        4.0270225981
 H       -14.2619326202       -1.0255736668        4.4744493465
 H       -13.0865915565       -2.0273973559        5.1458094622
 H       -12.7001034055       -1.5922880935        0.8665728529
 H       -14.2164025593       -1.8484219182        1.5698280762
 H       -13.2523542272       -3.0285858655        1.6590711877
 H       -16.5532548029        3.8758178308       -0.9369534860
 H       -16.0409831576        4.1054194505        0.7528913174
 H       -17.0066762329        2.7826767105        0.2598882792
 H       -15.7797377853        0.9477702899       -1.2768633397
 H       -14.6706022106        0.5327818142       -0.0115507236
 H       -14.0619887783        1.0014546243       -1.5325785005
 H       -11.6250088537        7.5112766073       -5.0335865516
 H       -12.6271914538        7.0984976289       -3.4848717223
 H       -12.1637456343        5.9669765004       -4.6328330559
 H        -9.5001331256        5.9150921595       -5.4121475998
 H        -9.6226813601        4.5806633447       -4.2372806554
 H        -8.3670387719        5.7733898449       -4.1065666528
 H        -5.5830275309       12.8341745050       -3.6969301202
 H        -7.1305255324       12.3304884329       -3.1701186536
 H        -6.7561691550       12.1110477883       -4.8316202426
 H        -4.1929698662       10.8088213128       -4.8339009802
 H        -4.9772642041        9.3885838252       -5.2857881701
 H        -4.2592501425        9.4192194134       -3.8106269146
 H        -5.5572275927        8.6427715214        3.8551305680
 H        -5.9969848831        9.9356572859        2.6800853813
 H        -4.3477554973        8.9643974916        2.5680757072
 H        -6.0625919717        6.0159313617        2.8301453165
 H        -4.4569653060        6.7189251227        2.2364049036
 H        -5.8058433997        6.0236898434        1.1464367101
 Na       -8.5410295998        6.4358845218       -0.3066329008
