117

 C        -8.0292998500        9.2686885153        3.3985038368
 C        -7.6286088328        8.2574404365        2.3884467659
 O        -8.4723697562        7.5938497561        1.7341850751
 C        -6.0152697585        8.0100673729        2.0148944134
 C        -5.8576292881        8.1303130712        0.4186700923
 O        -6.3484558941        7.3477452604       -0.3466585356
 C        -4.7109622418        9.0792551661       -0.1487597177
 C        -4.6294117353        9.4832267866       -1.5490310175
 C        -5.8605985851       10.2005259308       -2.1749846679
 O        -6.5958295147       10.8570023408       -1.4632940351
 C        -5.9719966996       10.4361625272       -3.7716001949
 C        -7.1294592579        9.5326445154       -4.2746208856
 O        -7.0118772312        8.3840322851       -4.5146683730
 C        -8.5267419542       10.0249786304       -3.7999440888
 C        -9.8016240629        9.0818777142       -3.8703965293
 C        -9.5983758716        7.7781204556       -2.9672481677
 O        -8.8493248926        7.8491652090       -2.0424265097
 C       -10.5232290144        6.5555505933       -3.4917585189
 C       -10.8821237732        5.4480013533       -2.3860307128
 O       -10.2048845253        5.3592399489       -1.4031156220
 C       -11.9441186271        4.3979972714       -2.6882774815
 C       -12.7172205927        3.9105870916       -1.4968820447
 C       -14.2543567564        3.7783094181       -1.6131786696
 O       -14.8504928242        4.3500495439       -2.4583340354
 C       -14.9006597634        2.8788220409       -0.5244596878
 C       -13.9180477524        2.8659711333        0.7227587831
 O       -13.9963776500        3.8427076889        1.5094854994
 C       -12.9959289629        1.6880897133        1.1601024136
 C       -13.5023392706        0.9764229302        2.4926005257
 C       -12.4543922011        0.0618886398        3.1582790432
 O       -11.6641637615        0.6319296681        3.8190154732
 C       -12.6693156240       -1.5030206087        2.9919339079
 C       -11.2519983416       -1.9884044015        3.3653946042
 O       -10.2950436817       -1.6280928027        2.7380820256
 C       -11.0553019156       -3.1210955550        4.4142010260
 C       -11.4570619028       -4.4913656090        3.8180095304
 C       -10.9433411384       -4.9578697282        2.4218138786
 O       -11.0929335862       -4.2529929163        1.4476131910
 C       -10.5845253984       -6.4402405688        2.2423777974
 C       -10.1043463751       -6.7908887593        0.8129082301
 O       -10.4021741489       -7.8193278226        0.2223757982
 C        -8.9019893386       -5.8462029853        0.2592793204
 C        -9.1286422027       -6.5867170003        3.0636352113
 C       -11.6345629910       -7.4772984715        2.7828689011
 C       -13.7365975123       -1.9924873494        4.0415945656
 C       -13.2392747762       -1.9880831285        1.6715006763
 C       -16.1177435244        3.5560449288        0.0601748029
 C       -15.2344749177        1.4959689748       -1.2568956623
 C       -11.8405143599        7.1095173373       -4.1731515901
 C        -9.5468128842        5.8874127705       -4.6205588654
 C        -6.2858482737       11.8819508394       -3.9310961395
 C        -4.7041926834       10.0282374463       -4.5799167238
 C        -5.3121717919        9.1591186411        2.7134963454
 C        -5.4847974256        6.6316451397        2.4272366821
 H        -7.6396647713        8.9047348961        4.3154375330
 H        -9.1667983866        9.1049432405        3.5758996723
 H        -7.7881527846       10.2739766196        3.1634825970
 H        -3.6635336462        8.7242172064        0.1475110322
 H        -4.7893863314        9.9827978783        0.4827925278
 H        -4.5379096446        8.4788627471       -2.1706147587
 H        -3.7418827927       10.1482449070       -1.9532432747
 H        -8.6974533845       11.0777140428       -4.0714682501
 H        -8.4839866224       10.1480997455       -2.7170013542
 H       -10.0968732704        8.8419568701       -4.9014703834
 H       -10.5787236132        9.7295934626       -3.4822887201
 H       -11.4181060070        3.5953338909       -3.1881246464
 H       -12.6648058596        4.9227557288       -3.3357005717
 H       -12.4667165106        4.6439305745       -0.8725649153
 H       -12.1930534630        3.0769934062       -1.0633683358
 H       -12.0113385553        2.0099365528        1.2914597460
 H       -13.0899215202        0.8965518304        0.2914772932
 H       -14.5239973925        0.4439101551        2.2872822181
 H       -13.7153730847        1.7772777777        3.2201874162
 H       -11.6859460244       -3.1210397393        5.3342114165
 H       -10.0065822389       -2.8935977821        4.8774893265
 H       -12.4977548963       -4.3722941331        3.5614178646
 H       -11.3196656853       -5.1661812274        4.6232668640
 H        -9.3106826975       -5.7042537485       -0.7818482610
 H        -7.9373407344       -6.3634873334        0.2565798412
 H        -8.7978497418       -4.8876968716        0.8909688738
 H        -8.7123812138       -7.5360537797        2.7934209439
 H        -9.3534551542       -6.5437719086        4.1027036452
 H        -8.5137275220       -5.7566407298        2.8091990237
 H       -12.1087343948       -6.8165822028        3.5842489020
 H       -11.1096091214       -8.3264009066        3.3170873217
 H       -12.2786539008       -7.8187575084        2.0945351780
 H       -13.7242749585       -3.0644971841        4.2299206589
 H       -14.8108292747       -1.6496412123        3.7900390846
 H       -13.4975111817       -1.4538135098        4.9738723309
 H       -12.6632195401       -1.7928702923        0.7313693525
 H       -14.1882329745       -1.5976551220        1.4465591471
 H       -13.5315335873       -3.0797930967        1.5642676397
 H       -16.9658877547        3.5587266156       -0.6951555325
 H       -15.8937985285        4.6914256720        0.2980753450
 H       -16.3206339395        3.1680297006        1.0712587796
 H       -15.1171519649        1.7265093105       -2.2467513918
 H       -16.2234740082        1.0992760190       -1.3157093455
 H       -14.6100584246        0.6673548852       -0.9338710979
 H       -11.5819197873        7.9256921483       -4.7833142775
 H       -12.5191067878        7.4954969773       -3.3800649549
 H       -12.4188257874        6.4155257598       -4.7874384000
 H        -8.8517396241        6.6724704726       -4.9753897788
 H       -10.0533407599        5.3031004874       -5.3861697184
 H        -8.9075845637        5.1625571099       -4.1535688681
 H        -5.4179181010       12.2703514302       -3.4533042442
 H        -7.0857327400       12.2250706609       -3.2937155939
 H        -6.5001530873       12.1416330789       -5.0360281445
 H        -4.4963427804       10.7647839820       -5.2778979597
 H        -4.8757747032        9.0945000387       -5.1528753390
 H        -3.8308692891        9.6620122146       -4.0723936877
 H        -5.2464079246        9.0428492337        3.7653691879
 H        -5.7067970313       10.0416051250        2.3329207786
 H        -4.2504057797        9.0256423348        2.4096308855
 H        -5.1110474806        6.7154062433        3.4277771506
 H        -4.5921652340        6.2869665171        1.7323398157
 H        -6.2528690445        5.9407370573        2.4377192512
 Na       -8.4872096211        6.3476140598       -0.3697877919
