117

 C        -7.4495632891       10.1982268819        2.7758387961
 C        -7.2655020867        8.9330071305        1.8826436769
 O        -8.1210456687        8.5152023238        1.1555317641
 C        -5.8656986536        8.2107058362        2.0521334153
 C        -5.4245031980        7.7619748517        0.7189961940
 O        -5.7691269074        6.7347376286        0.1760187221
 C        -4.4811832839        8.8270954060       -0.2333780353
 C        -4.7109492171        8.9599972494       -1.7163493561
 C        -5.5609303632       10.2296171139       -2.2719539105
 O        -6.2693487820       10.9802451987       -1.6759965482
 C        -5.7619933883       10.1130126287       -3.9663085439
 C        -7.1558339066        9.4602628404       -4.1817501588
 O        -7.1122788362        8.3541880098       -4.8105061050
 C        -8.4528014694       10.1223274136       -3.9375959281
 C        -9.7029814835        9.2761381929       -4.1257389990
 C        -9.8401098905        7.9846932605       -3.3099701715
 O        -9.0880381580        7.9264849740       -2.3209066646
 C       -10.6372944175        6.6989904525       -3.7909811063
 C       -10.7907467880        5.7570113498       -2.6451767288
 O        -9.9562591681        5.4845652479       -1.7192609539
 C       -11.9769764498        4.6484063324       -2.8953471943
 C       -12.5868628657        3.7161271292       -1.7999338539
 C       -14.1368967423        3.8747789157       -1.6655592702
 O       -14.7522401119        4.6371830721       -2.3604020088
 C       -14.9562622705        2.9547368375       -0.5905835864
 C       -14.1238692157        2.8825759855        0.7537312860
 O       -14.1406939734        3.8383894883        1.4768548418
 C       -13.3693835477        1.6763343040        1.3334193896
 C       -13.8287467554        1.1552725684        2.6418149818
 C       -12.7695742036        0.1484810802        3.2240975900
 O       -11.9427211845        0.7162359648        3.9242992421
 C       -12.7262888509       -1.4326297213        3.0338795533
 C       -11.3271125930       -2.1203332329        3.3338009427
 O       -10.2365230536       -1.7580069156        2.8837690549
 C       -11.3869343886       -3.2263227178        4.4629789964
 C       -11.8781533142       -4.6099894717        3.9033506705
 C       -11.2107963465       -5.3540082624        2.7199573950
 O       -11.3067913614       -4.8330970832        1.6326620624
 C       -10.7776492518       -6.8212617867        2.9402199591
 C       -10.0010218910       -7.2287184345        1.5862223200
 O       -10.3977993190       -8.1335857583        0.9310231776
 C        -8.7410670244       -6.3872226207        1.3766502647
 C        -9.7248675850       -6.8967997435        3.9521932939
 C       -11.9646766799       -7.8510116325        3.2033992820
 C       -13.9325028703       -1.9495912309        3.7963244255
 C       -12.9975577102       -1.7048039334        1.4937193466
 C       -16.1231782527        3.8591781440       -0.2357991971
 C       -15.2337763256        1.7480087996       -1.4381484740
 C       -12.0341591024        7.1554585234       -4.3989834941
 C        -9.5387305933        6.0784130146       -4.7381066141
 C        -5.8556474797       11.6905782706       -4.3415327221
 C        -4.6307097846        9.4633754432       -4.8765589085
 C        -4.7483731256        9.0169839257        2.8054071646
 C        -6.0516521448        6.9881961296        3.0461927619
 H        -7.2856242844       10.0742745964        3.8614681709
 H        -8.4195887846       10.4412367398        2.6956162287
 H        -6.7206530239       10.9823670698        2.4768911160
 H        -3.4604583638        8.5062692627       -0.0308276693
 H        -4.4027285687        9.9724742087        0.1832275904
 H        -5.2616666064        8.0834531127       -2.1707566293
 H        -3.7107885729        9.0349482725       -2.1602154758
 H        -8.5279607380       10.9854073600       -4.7249960608
 H        -8.2792227313       10.6283151755       -3.0296923158
 H        -9.8374604808        9.1877794915       -5.1565242227
 H       -10.6484184812        9.8404117744       -3.8356741381
 H       -11.6713107868        3.8842766238       -3.6362222044
 H       -12.8871900413        5.1168694896       -3.2930969839
 H       -12.2613190479        3.8829760190       -0.7822989894
 H       -12.5060711686        2.7232825728       -1.9476469515
 H       -12.2256074164        2.0449098573        1.3093661871
 H       -13.3159749038        0.8679878275        0.6628546557
 H       -14.7806405695        0.6466096443        2.4792394217
 H       -13.8645461446        1.9475315099        3.5139405494
 H       -12.1233855735       -2.7111495289        5.1607077055
 H       -10.4047548750       -3.1701124152        4.8898537304
 H       -12.9037649080       -4.4754121977        3.5090809341
 H       -12.1180888111       -5.3366136523        4.6164014400
 H        -8.8231677130       -5.8879279022        0.3942098504
 H        -7.8145849869       -7.0595270036        1.6452435606
 H        -8.7853361069       -5.5598391237        2.0899584634
 H        -9.4601984652       -7.9342367341        3.9297050445
 H        -9.9198643391       -6.6697473131        4.9245397325
 H        -8.9916484674       -6.1992743981        3.7200297281
 H       -12.1793006256       -8.1389176769        4.2117361502
 H       -11.5875072509       -8.7187139951        2.8325110438
 H       -12.8253062591       -7.5191721758        2.5653307410
 H       -14.5567169257       -2.6871246314        3.1895405854
 H       -14.6343322616       -1.1776607232        3.9081171625
 H       -13.7931981414       -2.4526837894        4.8044172284
 H       -12.5045164593       -1.3113580553        0.6118972518
 H       -14.0737896116       -1.5300186666        1.1332060689
 H       -12.7755724638       -2.7352437808        1.3515849100
 H       -16.7235048396        4.3651787067       -1.0909143445
 H       -15.7657179396        4.6508347048        0.4301797783
 H       -16.8189890019        3.2658503634        0.5093782220
 H       -14.8675017853        0.7718292034       -1.1051303759
 H       -14.9593095357        1.8438157718       -2.5011713022
 H       -16.2363097809        1.5493435922       -1.5028407106
 H       -11.7582496194        7.8381341965       -5.1865562610
 H       -12.6717471580        7.7958499693       -3.8357868399
 H       -12.4675022770        6.2686214599       -4.8031007249
 H        -9.7844289723        6.4059431416       -5.7265647995
 H        -9.7762533304        5.0226687243       -4.8128182485
 H        -8.4936686496        6.1978510403       -4.4068577630
 H        -4.8403230615       12.1137199974       -4.2597568409
 H        -6.5173910184       12.0633202699       -3.5310279069
 H        -6.3137987527       11.9057748107       -5.2991785705
 H        -5.0964763519        8.9544125228       -5.7345937256
 H        -4.0951137161        8.7010130272       -4.3275629194
 H        -3.9439544498       10.1725250033       -5.2747845784
 H        -5.0538146624        9.1207390780        3.8158500445
 H        -4.5697299074       10.0062482283        2.3640000351
 H        -3.8969834412        8.4381792848        2.5747060541
 H        -6.9534974657        7.2223860139        3.6305638933
 H        -5.3171146426        6.9162195721        3.7013611421
 H        -6.1813063242        5.9901413136        2.5325010529
 Na       -8.4854873253        6.6294322577       -0.5168026571
