117

 C        -7.3349927359       10.3574803934        2.5758702912
 C        -7.1859201543        9.0656516075        1.8353264455
 O        -7.9932925443        8.6519735581        1.0126057675
 C        -5.8247214420        8.2639188110        2.1058410515
 C        -5.4003908817        7.7550570450        0.5254673512
 O        -5.8517267387        6.6984364899        0.1007476372
 C        -4.5727117753        8.7861337369       -0.2005169507
 C        -4.7098798392        8.8788433325       -1.7514828739
 C        -5.6515978211        9.9621952335       -2.2982784434
 O        -5.9165220297       10.8718437070       -1.5329698471
 C        -5.7505454443       10.1081653244       -3.8984315500
 C        -7.1402973695        9.3956871337       -4.3569433505
 O        -7.1546476379        8.2917486054       -4.8055463648
 C        -8.5453514427       10.1648338942       -4.0201159309
 C        -9.8470223410        9.3648176421       -4.2305432436
 C        -9.7324831031        8.0396003785       -3.3008588876
 O        -8.9709337594        8.0498461403       -2.3540561652
 C       -10.5721031699        6.7806157809       -3.7888378283
 C       -10.8318410517        5.6068504068       -2.5972230512
 O       -10.0625012546        5.4240009489       -1.7100027567
 C       -11.9204001201        4.6399164020       -2.9174474936
 C       -12.5115570450        3.9147914485       -1.7798309266
 C       -14.1295878393        4.0136174354       -1.7071212085
 O       -14.6889780960        4.7686980187       -2.4065360833
 C       -14.8202294327        3.0566587403       -0.6993873111
 C       -14.0688091312        2.9969204403        0.8686228200
 O       -14.0862411052        3.9470317701        1.5291164429
 C       -13.4245417464        1.5406304154        1.3047072987
 C       -13.9688626664        1.0595428711        2.6759904368
 C       -12.7608009434        0.2757001799        3.2604046478
 O       -11.8049877262        0.7197995807        3.8470800031
 C       -12.8279050788       -1.4099669888        2.9440299524
 C       -11.4587419307       -2.1089914181        3.4566577840
 O       -10.5083329695       -1.7759598237        2.8936403617
 C       -11.3582025811       -3.3605071068        4.4789745273
 C       -12.0449625333       -4.6642768268        4.0387632652
 C       -11.4135738992       -5.3536424525        2.7667811076
 O       -11.3619356088       -4.8381760404        1.6655203147
 C       -10.7587641893       -6.8365178410        3.0202672080
 C        -9.9569521063       -7.2686627452        1.7256114313
 O       -10.3156403619       -8.2327350271        1.0887464415
 C        -8.6734694264       -6.5564294732        1.4247226419
 C        -9.8276412483       -7.0021739098        4.3101071705
 C       -12.0510113112       -7.7244560944        3.2504308804
 C       -13.9864204431       -2.0188094256        3.7081963734
 C       -12.9385611591       -1.6705453128        1.4025948332
 C       -16.1766747805        3.6627020253       -0.2392899775
 C       -15.2486919519        1.7017838098       -1.3982138542
 C       -11.8638625707        7.1406788989       -4.4763167295
 C        -9.5647782847        6.1626944764       -4.7403735993
 C        -5.7423734583       11.5799248805       -4.4430786698
 C        -4.6489781885        9.3737950443       -4.7536690500
 C        -4.7179010300        9.0837891130        2.7964326206
 C        -6.2295420108        6.9837379404        2.9570893356
 H        -7.1393860944       10.4040689721        3.6141223610
 H        -8.3788091818       10.7061645392        2.3461669377
 H        -6.5770789191       10.9864629763        2.1347684320
 H        -3.5416511071        8.3968999589        0.1519468147
 H        -4.5648816574        9.7856407264        0.2323703018
 H        -5.0029454945        7.9199784529       -2.1078998596
 H        -3.8346131674        9.2523075028       -2.0868430799
 H        -8.5813941055       10.9948389420       -4.6211261923
 H        -8.3883708067       10.5794806589       -2.9396998329
 H        -9.8647764515        9.1487081378       -5.3020985773
 H       -10.7351868021        9.9057333601       -4.0480399100
 H       -11.5929644387        3.8426453785       -3.6130292715
 H       -12.7888088580        5.1082885115       -3.4056584561
 H       -12.1806516023        4.2848707930       -0.7536348047
 H       -12.4030916444        2.8121360957       -1.7194519448
 H       -12.3812498668        1.9055274701        1.4446250570
 H       -13.2220066286        0.7275775174        0.5312844035
 H       -14.8178622020        0.3157392782        2.5641994060
 H       -14.1588987800        1.8427686077        3.4081246316
 H       -11.6996463753       -3.0175910995        5.3772072956
 H       -10.3206176413       -3.4266480563        4.4381725385
 H       -13.0918602318       -4.6514699221        4.0285083610
 H       -11.9887232947       -5.5009833571        4.8400153472
 H        -8.4695385402       -6.4859033767        0.3300655936
 H        -8.0099881864       -7.1121536120        2.0391277040
 H        -8.7220177946       -5.5317568022        1.8018355651
 H        -9.4607724922       -7.9803684845        4.3419224422
 H       -10.5653585233       -7.0314443420        5.1315036801
 H        -9.1729524274       -6.2035513225        4.6219067385
 H       -12.3809786389       -7.5554240498        4.3883359854
 H       -11.8075398560       -8.7627288998        3.2624655332
 H       -12.7849468484       -7.4580726370        2.5939117997
 H       -14.5803503195       -2.6724858450        3.1439227646
 H       -14.7673320682       -1.2265916294        3.9775221985
 H       -13.7224940600       -2.5421421502        4.5920348848
 H       -12.1856408811       -1.2536053893        0.7156368021
 H       -13.8065136653       -1.2978592947        0.8842939076
 H       -12.7868039055       -2.6684648940        1.1798035902
 H       -16.8510029777        3.7937986792       -1.1724962232
 H       -16.1313210462        4.6828466920        0.2192244344
 H       -16.6569308253        2.9925104028        0.4872509841
 H       -15.0869609614        0.8132204063       -0.7590409242
 H       -15.0067841776        1.5305738724       -2.3710407712
 H       -16.3289940011        1.6373132605       -1.4633696741
 H       -11.8579097161        8.0596134185       -5.0661310281
 H       -12.6235784353        7.3319505956       -3.8154528394
 H       -11.9950526130        6.2676109295       -5.0925046035
 H        -9.8649225064        6.4759259831       -5.7205783455
 H        -9.7763078139        5.0702526211       -4.8372002691
 H        -8.5109862007        6.3567457974       -4.4696101681
 H        -4.8934693404       12.0889094680       -4.3427671674
 H        -6.5791200702       12.0157254719       -4.0351635525
 H        -5.9256151524       11.4641558916       -5.5307366921
 H        -4.9754766199        9.1566104163       -5.7737580207
 H        -4.3450445917        8.4488801589       -4.3650714394
 H        -3.8397813216       10.1200722866       -4.8972612852
 H        -4.9907541414        9.2791783517        3.8836790032
 H        -4.7260452614       10.1021653286        2.2672026886
 H        -3.8183708414        8.6813142904        2.4816932554
 H        -7.0116869018        7.1717921443        3.6886880207
 H        -5.3305655146        6.5652375446        3.5015945556
 H        -6.5093190113        6.1917861737        2.2767465994
 Na       -8.4783731218        6.7904279278       -0.5433632504
