117

 C        -6.9976601045       10.9147233505        1.9171296149
 C        -7.1523108577        9.4750326257        1.4953823949
 O        -8.2129007479        9.1595716118        0.9193754626
 C        -6.0863908490        8.3136849119        1.7418232642
 C        -5.5404236015        7.7794008098        0.3167316976
 O        -6.2584841681        6.9148756549       -0.1956833973
 C        -4.3929317633        8.2450386402       -0.4415543274
 C        -4.5591180224        8.3771290425       -2.0897237196
 C        -5.3847355179        9.6370371206       -2.5413054228
 O        -5.6659432815       10.5052107952       -1.6912439115
 C        -5.6451414882        9.8935561606       -4.0351829188
 C        -7.0977341243        9.1287616654       -4.2615209163
 O        -7.2104217992        8.0159891752       -4.6236828104
 C        -8.3019725311       10.1029129963       -4.0059832609
 C        -9.6174696856        9.3262268671       -4.3005971959
 C        -9.6068810950        8.1004117311       -3.4155990130
 O        -9.0356537078        8.2590679318       -2.3576230044
 C       -10.3716199082        6.8598873864       -3.7569078045
 C       -10.7102360393        5.9081868154       -2.4555749505
 O       -10.0829032964        5.9205244780       -1.4401835627
 C       -11.7491869790        4.9126736494       -2.6365935341
 C       -12.3176627534        4.3534795292       -1.3948350413
 C       -13.9566746466        4.1590427635       -1.4783735124
 O       -14.4734829711        4.9447549736       -2.2459146561
 C       -14.6496326811        3.1388094092       -0.6535185342
 C       -13.9364312875        3.0072823359        0.7348077471
 O       -13.9090827681        4.0037843606        1.4229307624
 C       -13.0693697882        1.8793550176        1.2723688341
 C       -13.7947476357        1.0844571168        2.4075939035
 C       -12.8034590687       -0.0254743939        3.0111851617
 O       -11.9401457797        0.4718177710        3.6572143212
 C       -13.0056604284       -1.5424393788        2.7249588223
 C       -11.6228716874       -2.1989114822        3.2733869797
 O       -10.5226133211       -1.8288243445        2.9615814814
 C       -11.8802085827       -3.1101899006        4.5152068126
 C       -12.1214613017       -4.6085107923        4.2296964703
 C       -11.4943117058       -5.4068120900        3.0428358467
 O       -11.3667065504       -4.8432324840        1.9648164045
 C       -11.1184382680       -6.9629701404        3.3516248222
 C       -10.1028167811       -7.4777332998        2.3465130729
 O       -10.2389633807       -8.5772266632        1.8293221479
 C        -8.7828079439       -6.5796946508        2.2592781331
 C       -10.4556090196       -7.0644354814        4.7880266641
 C       -12.4198785954       -7.7917842796        3.5165876414
 C       -14.2244267516       -1.9401133961        3.4829514698
 C       -13.1636041594       -1.9980681728        1.2983878801
 C       -16.1092264956        3.5283848510       -0.2540776913
 C       -14.7725866081        1.7823198635       -1.5352227741
 C       -11.6889365806        7.1512033773       -4.5927460354
 C        -9.5929413328        5.9001129376       -4.7199341092
 C        -5.3220943198       11.4778627761       -4.4571703606
 C        -4.6953801433        9.0833756867       -4.9844594886
 C        -4.9682948886        8.8989645489        2.5594428990
 C        -6.8094707632        7.1574309590        2.4576094056
 H        -6.6874676333       11.1021210604        2.8953226926
 H        -7.7977563937       11.6040636670        1.5173459461
 H        -6.1276111233       11.2045599647        1.4083445520
 H        -3.2978141144        7.8425702743       -0.3230040113
 H        -4.2799078881        9.3120657397       -0.1792049041
 H        -5.0194632025        7.4924091118       -2.3631709223
 H        -3.5282481729        8.4939739737       -2.3363930545
 H        -8.3140128517       10.9454250503       -4.5744516326
 H        -8.4063572803       10.3499771991       -2.8905398635
 H        -9.6960901667        9.0501364023       -5.3695365677
 H       -10.4034432275        9.9694773347       -4.0323377743
 H       -11.4500273323        4.0671776115       -3.2779475915
 H       -12.5629104616        5.3819165501       -3.1971887451
 H       -12.1378321657        5.0110460334       -0.5772002906
 H       -11.8475401133        3.3763830448       -1.0655842596
 H       -12.0754031510        2.2816602254        1.5435402819
 H       -12.9196852135        1.2141898506        0.2776196494
 H       -14.6831810285        0.4692454944        1.9432694696
 H       -14.2130541717        1.6838915086        3.2049724296
 H       -12.8115205704       -2.8077137301        4.9148175944
 H       -11.0657450080       -2.8423954441        5.2266943812
 H       -13.1422714336       -4.7497392262        4.0891201915
 H       -12.0980812353       -5.1243222239        5.2658058769
 H        -7.9501128708       -7.3483983479        2.3885012485
 H        -8.7106199661       -5.7729953223        2.9763368282
 H        -8.6290175254       -6.2419065062        1.1458482378
 H        -9.9505369737       -7.9486203728        4.9474329149
 H       -11.0644858219       -6.7528362168        5.6202264831
 H        -9.6611547006       -6.3664417365        4.7288863359
 H       -13.0903151943       -7.2822217210        4.1902499553
 H       -12.1139338075       -8.8150092353        3.8840526664
 H       -12.9488770993       -7.9595190310        2.6122149840
 H       -14.4104141995       -2.9894880609        3.5845280779
 H       -15.2003225469       -1.4084493282        3.0526156360
 H       -14.1942127119       -1.5033569533        4.4862551449
 H       -12.4054178728       -1.6251554640        0.5616187501
 H       -14.0411886866       -1.8223448423        0.7309350798
 H       -12.9342025461       -3.0919263537        1.2496999855
 H       -16.8624268556        3.8882722550       -1.0060023068
 H       -15.9922138374        4.4009662433        0.5169910954
 H       -16.5382072974        2.5910791773        0.1065941507
 H       -15.8306818849        1.5413988976       -1.6091485598
 H       -14.2561658742        1.0042155836       -1.0664404095
 H       -14.2564284399        1.7534631323       -2.5309411886
 H       -11.3656422439        7.3537928798       -5.6197687786
 H       -12.2016552009        7.9949193864       -4.1392120244
 H       -12.3905496241        6.3134422383       -4.7072999628
 H        -8.8832523624        6.4273199447       -5.3386830058
 H       -10.2957399012        5.3496621971       -5.3444747680
 H        -9.0082414883        5.3122660003       -4.0417999068
 H        -4.2445414992       11.5420086132       -4.6147061230
 H        -5.6341415996       12.2399371094       -3.8085482832
 H        -5.7765701258       11.6290656964       -5.4612441246
 H        -4.9022743892        9.2733396296       -6.0084934600
 H        -4.8752976248        8.0376913858       -4.8224884319
 H        -3.6608174340        9.3991469607       -4.8108790093
 H        -5.3340431526        9.2582100793        3.5269653792
 H        -4.4545452101        9.6610868702        2.0215105163
 H        -4.2674659744        8.0578279938        2.7214114578
 H        -6.8109240422        7.3560693519        3.5032161370
 H        -6.3773983255        6.0878127999        2.2281976241
 H        -7.8010200212        7.1464268973        2.1818618433
 Na       -8.4005168783        7.0244593381       -0.4666191855
