117

 C        -6.8459479752       10.9376257333        1.7288652906
 C        -7.1469588118        9.5343053755        1.3047485910
 O        -8.2853827865        9.2116215451        0.9438596073
 C        -6.1040569165        8.3861697553        1.6225145376
 C        -5.7357557652        7.7414946943        0.0385762467
 O        -6.3308986410        6.7090817479       -0.2869928377
 C        -4.4284471153        8.2572573874       -0.5491694040
 C        -4.3995198094        8.3542235021       -2.1958083325
 C        -5.1384657649        9.5687980506       -2.6295968735
 O        -5.7324153440       10.2270574576       -1.7495252682
 C        -5.4911064845        9.7914949614       -4.1737905231
 C        -6.9153879511        9.2954309142       -4.2700923804
 O        -7.0904712407        8.1070496105       -4.4513595317
 C        -8.2610085213       10.1936353250       -4.0766661572
 C        -9.5423151741        9.3416216387       -4.3444352070
 C        -9.6253758361        8.1978581161       -3.3456602388
 O        -8.9772851404        8.3152382991       -2.3058818609
 C       -10.4258391730        6.8594292777       -3.6719170831
 C       -10.8315224593        5.9660190597       -2.4824344158
 O       -10.1690469760        5.9511164108       -1.4285421427
 C       -11.8616167508        4.9435589790       -2.6866235766
 C       -12.2954982097        4.4118449800       -1.2575479725
 C       -13.8869142432        4.2599061611       -1.4277051459
 O       -14.3247011270        5.0114348072       -2.2828075208
 C       -14.6626361742        3.0993295834       -0.5529791268
 C       -13.8537178166        3.0403634596        0.6852922825
 O       -13.9590614253        4.0977444801        1.4103464902
 C       -12.9457889395        1.8186728287        1.1359584661
 C       -13.8659456521        0.9779185216        2.0731719018
 C       -12.6911154666       -0.0555194154        2.8643087091
 O       -11.9746043653        0.3761501302        3.7393566131
 C       -12.9799005053       -1.5451764427        2.7304149737
 C       -11.7353047427       -2.2012238547        3.3104037909
 O       -10.5924466077       -1.9260488390        2.7815298184
 C       -11.9341164636       -3.2797307050        4.4882705605
 C       -12.3413245584       -4.7094686455        4.3514792245
 C       -11.5694160362       -5.4298113213        3.2195737023
 O       -11.2847596730       -4.9304451727        2.1578564583
 C       -11.1944042325       -6.8885213999        3.4950609496
 C       -10.1470109829       -7.5233695246        2.5508442349
 O       -10.1387831607       -8.5568349378        1.9590878241
 C        -8.8684519647       -6.5613258990        2.3682723077
 C       -10.5327205339       -7.0991331037        4.9531504536
 C       -12.5815210451       -7.6319452571        3.6257319096
 C       -14.3540625676       -1.7793023866        3.4552195006
 C       -13.0749065057       -2.0052108469        1.2499176257
 C       -16.0938668785        3.4810091757       -0.1534317141
 C       -14.5308263182        1.8393351318       -1.4936520913
 C       -11.6253018535        7.2909025423       -4.6140739689
 C        -9.5518822723        5.7345461234       -4.5164080830
 C        -5.4608655489       11.2714598767       -4.5200448464
 C        -4.4864704002        9.0525214302       -5.1498124492
 C        -4.9575012537        8.9116274747        2.6129346478
 C        -6.9897838581        7.2868448574        2.3445660630
 H        -6.5908152910       10.9084349119        2.8187792239
 H        -7.6084685719       11.6050413663        1.4351052555
 H        -5.9320382994       11.3697924546        1.3564782996
 H        -3.5702515888        7.5537501731       -0.3751809555
 H        -4.0574158348        9.1877453173       -0.1813461744
 H        -4.8326415121        7.4428550486       -2.4673827887
 H        -3.2528021099        8.3847466614       -2.2397106880
 H        -8.4499087844       11.0728581019       -4.7360022424
 H        -8.3025525806       10.3982386063       -3.0276909561
 H        -9.4437814624        8.9763248237       -5.3839364473
 H       -10.4062275674        9.9298836260       -4.2320303126
 H       -11.5066807959        4.0868721326       -3.2522221824
 H       -12.6631048668        5.3357717991       -3.3356510459
 H       -12.0641455958        5.1593665268       -0.4210006378
 H       -11.7114605313        3.4295463883       -0.9239330021
 H       -12.1441196239        2.1899884854        1.8132267621
 H       -12.4790210535        1.3972024252        0.2130043319
 H       -14.6842071621        0.3726111400        1.6304633800
 H       -14.3603366821        1.6791488688        2.7858484181
 H       -12.5356025094       -2.8345478668        5.2182405376
 H       -10.9768915630       -3.3147877000        4.8756286659
 H       -13.4071609608       -4.9479846650        4.1077184346
 H       -12.3327280999       -5.1294387075        5.3801027019
 H        -8.0754857327       -7.0371662006        2.9248556742
 H        -8.9951892308       -5.5305924542        2.7965057734
 H        -8.5177551423       -6.5293616228        1.3310230783
 H        -9.9298419700       -7.9913641316        4.8105296538
 H       -11.1757584618       -7.0867782265        5.7801986306
 H        -9.6929753983       -6.4929063136        5.0869612969
 H       -13.1667192624       -7.3480531524        4.4292146102
 H       -12.3180739380       -8.7295584869        3.4926487296
 H       -13.2019813321       -7.4299464150        2.6074541485
 H       -14.5513676245       -2.8673802603        3.4978142621
 H       -15.1875947371       -1.2583031398        3.0368607673
 H       -14.3508891385       -1.4463704693        4.5093574672
 H       -12.3166322882       -1.8006594717        0.5724618361
 H       -13.9169355040       -1.6223938617        0.7326539144
 H       -13.1776664531       -3.1196273355        1.1390596097
 H       -16.6923943851        3.8372777560       -1.0143090920
 H       -16.0052294173        4.3506303295        0.5196243688
 H       -16.7019544974        2.5847835329        0.1548128677
 H       -15.4446184575        1.6482836708       -1.8974349085
 H       -14.2544628905        0.9877253570       -0.8445654194
 H       -13.7079616965        1.8285705365       -2.2134585371
 H       -11.1326419592        7.5847240049       -5.4741294660
 H       -12.3231114290        8.0296386615       -4.1420044090
 H       -12.2560307125        6.4818333920       -4.9262364513
 H        -9.0788394008        6.3748454229       -5.2918704524
 H       -10.2297785429        5.0172442746       -4.9975346390
 H        -8.7378219015        5.3675082126       -3.9196144934
 H        -4.4607289432       11.5815538328       -4.8324645095
 H        -5.8168993442       12.0010697515       -3.8452436923
 H        -6.0425657887       11.3071505918       -5.3111636514
 H        -4.8277233201        8.7842573208       -6.1117412747
 H        -4.3867521029        8.1041189725       -4.5328895027
 H        -3.5959962636        9.6297022080       -5.1727776403
 H        -5.4687970076        9.0590793336        3.6000818535
 H        -4.6151123046        9.8655903060        2.1990394295
 H        -4.0338932015        8.1881032868        2.7751613011
 H        -7.3315470916        7.6130858020        3.3628252944
 H        -6.5121590171        6.3538445831        2.3769754060
 H        -7.9336671897        7.1535331821        1.7869935335
 Na       -8.5256014228        7.1456105154       -0.3303575609
