117

 C        -6.7174219644       10.9582683334        1.5115842151
 C        -7.2536462529        9.5596663695        1.2256178176
 O        -8.3327395417        9.3147059817        0.7837687507
 C        -6.2327990957        8.3929298881        1.3747514835
 C        -5.7200931702        7.6902771048        0.1349320491
 O        -6.3314593327        6.7876221065       -0.4018307999
 C        -4.3656117880        8.1813196663       -0.5492325446
 C        -4.2822267582        8.2275654231       -2.2065895709
 C        -5.1020202319        9.4990672498       -2.6221836203
 O        -5.8303082509       10.1170427065       -1.9198186360
 C        -5.3069903846        9.7596301224       -4.2518717322
 C        -6.8717634302        9.2820064350       -4.3018962878
 O        -7.0700640922        8.0394383951       -4.3407935254
 C        -8.0485533695       10.1866890045       -4.1921572518
 C        -9.3259945507        9.3330111320       -4.3908230464
 C        -9.4416569306        8.1798711875       -3.3045874199
 O        -8.9963951796        8.2735214011       -2.1822133139
 C       -10.3217016345        6.9062900460       -3.7709347268
 C       -10.7727845801        6.0531400546       -2.4356638083
 O       -10.1920633502        6.1353275774       -1.3711036738
 C       -11.8307057550        4.8814875335       -2.6470591855
 C       -12.4458520445        4.3424296173       -1.2518272877
 C       -13.9190521296        4.3445323866       -1.4665116759
 O       -14.6899375548        4.9692401992       -2.1516384695
 C       -14.5490617150        3.1662958107       -0.5757812720
 C       -13.7895360013        3.2062461141        0.7575758286
 O       -13.8230308456        4.0955651026        1.5665997045
 C       -12.8616729469        1.9134611813        1.1091066450
 C       -13.5492448548        0.8481948107        1.8825138719
 C       -12.8493498316       -0.0058527659        2.8289242373
 O       -12.0960749429        0.4442061913        3.6347309040
 C       -13.0843584179       -1.6093286514        2.6825398363
 C       -11.8581294436       -2.4525732391        3.3122138543
 O       -10.8245056582       -2.1955144990        2.7949767795
 C       -11.7400390935       -3.3040154183        4.6031296077
 C       -12.5035770647       -4.5752569108        4.3417554816
 C       -11.6385349542       -5.4572357976        3.4340755112
 O       -11.2507528318       -4.9929097362        2.3929261884
 C       -11.1935595759       -6.9993766373        3.6863007106
 C       -10.1339322330       -7.3991590752        2.6777937645
 O       -10.2187997549       -8.5132712163        2.1807017915
 C        -8.8849604381       -6.5932082323        2.4665233391
 C       -10.5954894356       -7.1281117670        5.1567894801
 C       -12.6815598470       -7.6780970459        3.5581320022
 C       -14.4176138744       -1.7438679983        3.3872319176
 C       -13.0609269238       -2.0093908443        1.1681540665
 C       -16.0312195853        3.4385371134       -0.3179511149
 C       -14.3622409467        1.8820812215       -1.4477016070
 C       -11.5776339103        7.3978231004       -4.5621504019
 C        -9.3930105444        5.8820169106       -4.3486495583
 C        -5.4991388233       11.3224387568       -4.5580569005
 C        -4.3862198537        8.9806766949       -5.1644739707
 C        -5.0601867865        8.7019868661        2.2730512923
 C        -6.9953467915        7.3601162304        2.2857543763
 H        -6.4867885727       11.1073549593        2.5968856640
 H        -7.4629810520       11.5986639545        1.1133341730
 H        -5.7517922971       11.4035301220        1.0860842300
 H        -3.6504376333        7.5168382461       -0.3086082565
 H        -3.8829065407        9.1209885577       -0.3241088906
 H        -4.7015577844        7.1613829445       -2.5041058454
 H        -3.1863488836        8.2782820088       -2.2320798434
 H        -8.1043034063       10.8348474905       -5.1819173223
 H        -7.9808878336       10.6764307305       -3.2665862426
 H        -9.1381999504        8.9670463624       -5.3584406298
 H       -10.3594401121        9.8405837694       -4.3131251697
 H       -11.3589447734        4.0385374647       -3.1560248489
 H       -12.6191666195        5.1547586174       -3.3720264346
 H       -12.1518658715        5.0439655263       -0.3609977444
 H       -12.1295301276        3.3689029849       -0.9110827831
 H       -12.0000733978        2.3267451831        1.6466023646
 H       -12.5605532298        1.5926007835        0.2289105194
 H       -14.0428814067        0.2084238270        1.2559011288
 H       -14.4240012509        1.2793546580        2.4348504547
 H       -12.0802082740       -2.6686045242        5.4462986776
 H       -10.6948409982       -3.4392070639        4.7571097892
 H       -13.5335132796       -4.4789653834        3.7718990594
 H       -12.8327685890       -5.0357470640        5.2195441250
 H        -8.2212580095       -6.6926492641        3.2996490829
 H        -9.2930361355       -5.5953254171        2.5434624995
 H        -8.4161773277       -6.7419163464        1.5845294647
 H        -9.9680173018       -8.0427566803        5.1523304309
 H       -11.3770109896       -7.1021460819        5.8973526191
 H        -9.7003489209       -6.5048088039        5.3144303696
 H       -13.4165890284       -7.5161142783        4.4510628526
 H       -12.6825524398       -8.6297124681        3.0815980536
 H       -13.1095850700       -7.0918086356        2.7372716791
 H       -14.7019374377       -2.8094838027        3.4074754145
 H       -15.1453906102       -1.1780021600        2.9702983101
 H       -14.3712712698       -1.4262643597        4.4234103209
 H       -12.1477673675       -1.9634711605        0.6586299240
 H       -13.7550408043       -1.4393700964        0.4771471678
 H       -13.4064593216       -2.9662268227        0.9190405312
 H       -16.5400657138        3.6384294595       -1.2466070819
 H       -16.1091159345        4.2511706149        0.2936883583
 H       -16.5676600431        2.5318096267       -0.0172726890
 H       -14.9933049886        1.9734253993       -2.3564418386
 H       -14.7469521235        0.9902643578       -0.8495426715
 H       -13.3468110450        1.6846317651       -1.6243272569
 H       -11.2533238017        7.9641584021       -5.4310837457
 H       -12.3033277739        7.7765168760       -3.8800308267
 H       -12.1258954410        6.5239624354       -4.9288066729
 H        -9.0859705700        6.2751666663       -5.3447167515
 H        -9.9806231723        4.9659631151       -4.4676064589
 H        -8.4520610869        5.8202663483       -3.7618426878
 H        -4.6796789911       11.9584201576       -4.5891050105
 H        -6.0883717582       11.7326013622       -3.7220444223
 H        -6.1727278890       11.4607738095       -5.4624561425
 H        -5.0305441179        8.6059187628       -6.0446091999
 H        -4.1054103504        8.0652207893       -4.6492442084
 H        -3.5689839205        9.6175393727       -5.5393539298
 H        -5.5229924513        8.8148944613        3.3036343606
 H        -4.5867125870        9.6873691626        1.8823525043
 H        -4.3446748939        7.9031744042        2.3387390472
 H        -7.5042386310        7.8514957768        3.1397061349
 H        -6.2505956619        6.7247559831        2.6414973782
 H        -7.7922348658        6.7226823238        1.7789503879
 Na       -8.7198471015        7.3373679688       -0.2127462525
