117

 C        -6.6942887083       10.9553695388        1.2485292655
 C        -7.2231485741        9.6020457137        1.0044264957
 O        -8.4141252666        9.5232427533        0.6238910125
 C        -6.2056302533        8.3527303947        1.3867262697
 C        -5.7297766793        7.6927526628       -0.0753368943
 O        -6.4454219732        6.8897631560       -0.6336793704
 C        -4.3494759859        8.0944207862       -0.5651026355
 C        -4.3493956540        8.2650316383       -2.1341099220
 C        -5.2285063380        9.3828034738       -2.6821127908
 O        -5.8281632270       10.1071451842       -1.9191416693
 C        -5.3754387162        9.6784174148       -4.2228949162
 C        -6.8197404919        9.0526065705       -4.3287781852
 O        -6.9291314077        7.8561842507       -4.3122901157
 C        -7.8837580105       10.0337413645       -4.3267195331
 C        -9.2261890686        9.2697592140       -4.4010819476
 C        -9.4482711418        8.1993482353       -3.2512128212
 O        -8.8994035403        8.4510147824       -2.1902602830
 C       -10.2686851162        6.8850025874       -3.6687863294
 C       -10.7112936239        6.1344269397       -2.3737345966
 O       -10.3231569859        6.2379599957       -1.2377415229
 C       -11.6987840971        5.0470581527       -2.7226923949
 C       -12.5189244900        4.4971423261       -1.4885531404
 C       -14.0725973357        4.3567500008       -1.4363746106
 O       -14.8603032278        5.0032299544       -2.0473464709
 C       -14.5873280901        3.1260960667       -0.5306746733
 C       -13.5904413368        3.1976019208        0.9094954051
 O       -13.7488163321        4.0799227577        1.6447275685
 C       -12.6966766731        2.0291462453        1.2044728489
 C       -13.5970415598        0.8854643200        1.6125461423
 C       -12.7806946669       -0.0623949950        2.7179761564
 O       -12.1532725965        0.4439518401        3.5885708621
 C       -13.1232299187       -1.6662086289        2.6950042795
 C       -11.7403555603       -2.3490421007        3.3262684145
 O       -10.7966564152       -2.3953326340        2.6632805028
 C       -11.8823023112       -3.2064797937        4.6931749118
 C       -12.6421679872       -4.5965867370        4.3783440277
 C       -11.6616812273       -5.4287772237        3.5712237858
 O       -11.2636667970       -4.9771854981        2.5049252854
 C       -11.3455613522       -6.9490625928        3.9027198811
 C       -10.1974186367       -7.4323436570        2.8465734434
 O       -10.3345276825       -8.5230306065        2.3304247442
 C        -8.8980809381       -6.5889521293        2.6126069680
 C       -10.8223155944       -7.1658296774        5.3165087632
 C       -12.5431130036       -7.7737268186        3.5635383439
 C       -14.5440345945       -1.8894662696        3.3516314359
 C       -13.1106018421       -2.1186162986        1.2564680559
 C       -16.1107381735        3.3573006298       -0.4128759208
 C       -14.3008583981        1.8925218109       -1.3766720846
 C       -11.4513806709        7.3387725988       -4.4546370814
 C        -9.1911809281        6.0508708269       -4.4354521418
 C        -5.2518190883       11.2841114969       -4.5051109076
 C        -4.3851924266        9.0244152073       -5.1718160131
 C        -4.8763267867        8.7319616393        2.1259370578
 C        -7.0922779452        7.2262186307        2.2162191067
 H        -6.4530408349       11.0289748110        2.2992139182
 H        -7.4501910373       11.7388233492        0.8396350718
 H        -5.7514745782       11.3412067593        0.8174908131
 H        -3.6086304064        7.3916725652       -0.1434661655
 H        -3.9748909074        9.0771763879       -0.2695380451
 H        -4.9535574750        7.3079616364       -2.3068374853
 H        -3.3263475283        8.2654757041       -2.4105378490
 H        -7.8140424947       10.6076418113       -5.2007523268
 H        -7.7756478502       10.5795358903       -3.3217985819
 H        -9.2842791371        8.9700729044       -5.4501692037
 H       -10.1301324485        9.8902856926       -4.0884810737
 H       -11.0928614921        4.2296521060       -3.1753720345
 H       -12.3198424335        5.3079890744       -3.5735640053
 H       -12.2565185068        5.1702663363       -0.7101174268
 H       -12.1420737467        3.5853441522       -1.1216543613
 H       -12.0995285132        2.3211605434        1.9856127166
 H       -12.1361000009        1.8571136799        0.2524786723
 H       -14.2383805058        0.4672726171        0.8204031543
 H       -14.3269279979        1.2466630264        2.2791319156
 H       -12.3382703472       -2.4844737981        5.4638256791
 H       -10.7934511047       -3.3661795532        5.0886471288
 H       -13.6059817362       -4.5868939416        3.8832595244
 H       -12.7845024468       -5.1577293745        5.3339551286
 H        -8.3627970238       -6.3702696226        3.5332012839
 H        -9.1795236252       -5.6901557581        2.2210315105
 H        -8.3030233602       -7.1148217121        1.8380151169
 H       -10.3963994084       -8.1537175088        5.3815718643
 H       -11.6073173393       -6.9684821060        6.1259163729
 H        -9.8157671778       -6.6849717694        5.3864092011
 H       -13.2518106837       -7.9754973935        4.4329170012
 H       -12.1287801266       -8.6372317597        3.0682539216
 H       -13.0790361019       -7.4020660905        2.7890402589
 H       -14.8671508902       -2.8646708042        3.1816821877
 H       -15.2405494228       -1.1612155516        2.8078066090
 H       -14.6437626908       -1.6752603083        4.3781881479
 H       -12.0719992504       -2.1399947858        0.8038343048
 H       -13.7136655484       -1.5775445788        0.5003723800
 H       -13.5063974265       -3.0859629916        1.0095467374
 H       -16.5315974926        3.3642994058       -1.3654242796
 H       -16.3408401802        4.2656822913        0.1366919977
 H       -16.5729277781        2.5397137682       -0.0024886360
 H       -14.2880080738        2.1691365237       -2.4997038911
 H       -15.0688238290        1.1172406676       -1.2925909132
 H       -13.3050750917        1.5219817349       -1.0380763644
 H       -11.0650026151        7.9450840386       -5.3179253871
 H       -12.2706157501        7.6053078297       -3.8640580284
 H       -11.8931226760        6.4213660374       -4.8897413821
 H        -9.0598337062        6.4935180875       -5.4300758169
 H        -9.6715045205        5.0628420676       -4.4839836197
 H        -8.1888407783        6.0755861125       -3.9572531721
 H        -4.2614376562       11.6045235035       -4.1180960070
 H        -5.8881687859       11.9305487553       -3.8330540520
 H        -5.4597583750       11.6370745893       -5.6019746587
 H        -5.0814227897        8.8567842594       -6.0367654933
 H        -3.9922290470        8.0782003124       -4.8349945281
 H        -3.6743492205        9.8153978793       -5.5609586893
 H        -4.9726850960        9.0904937842        3.1603749171
 H        -4.3705478558        9.4370179909        1.4777577730
 H        -4.3011788490        7.8421482495        2.2729193731
 H        -7.8398296916        7.6563427305        2.8300088215
 H        -6.3597758353        6.5915827583        2.8974060420
 H        -7.6030735721        6.5502807972        1.5866294593
 Na       -8.8431746216        7.4813840780       -0.0989892686
