117

 C        -6.2419712992       11.1265066848        0.6521041582
 C        -6.9908080459        9.8902376744        0.8528792123
 O        -8.2378351913        9.8101132701        0.6407860316
 C        -6.2932815123        8.5498497876        1.1617700331
 C        -5.8569372510        7.9583545536       -0.2977865054
 O        -6.7964614858        7.7777552415       -1.0650953518
 C        -4.4219670323        7.4467889105       -0.6597571288
 C        -4.3736854541        7.7328801717       -2.2431298110
 C        -4.8489585052        9.0667472670       -2.7018514775
 O        -5.1222496696        9.9195023586       -1.8414513197
 C        -4.8128378417        9.4994886612       -4.1987913649
 C        -6.4193267074        9.0143980971       -4.6696635793
 O        -6.6357769904        7.9177759707       -5.0119263776
 C        -7.6412137007       10.0678602674       -4.5140038974
 C        -9.0243057725        9.1959934009       -4.6895936519
 C        -9.5182472107        8.4288621745       -3.5121456449
 O        -9.3212961167        8.8571704091       -2.4193286575
 C       -10.3445508545        7.1253042709       -3.6597295660
 C       -10.9742699354        6.4151844227       -2.3764400406
 O       -10.4369588812        6.5944512754       -1.2857725867
 C       -12.1892810332        5.5056372685       -2.5836614983
 C       -12.4123020608        4.6659126385       -1.2867537145
 C       -13.8808227326        4.3367049337       -1.2192038807
 O       -14.7380349248        4.9856610704       -1.8750041180
 C       -14.4267340493        3.0922698419       -0.4672226305
 C       -13.6548957116        3.1724410481        0.9313070859
 O       -13.6056525944        4.2390336194        1.4861939132
 C       -13.0907711780        2.0353782116        1.7477027625
 C       -13.4868850495        0.5643107689        1.4693918474
 C       -12.9157754579       -0.4129309414        2.4321729892
 O       -12.0940671288        0.1069112092        3.2547373551
 C       -13.2861101362       -1.8457541367        2.4462973785
 C       -11.9562068748       -2.4786161395        3.3681907590
 O       -10.8130139550       -2.2266174659        2.9853472296
 C       -12.0812148500       -3.1576904293        4.7587070217
 C       -12.6677235552       -4.6729532163        4.8618312461
 C       -11.8946727716       -5.5897268686        3.8649215796
 O       -11.8672148131       -5.1889000552        2.6958125289
 C       -11.6194311711       -7.0036488440        4.2753037743
 C       -10.3814373869       -7.5361640650        3.4743353439
 O       -10.4198433028       -8.5958453159        2.8955391361
 C        -9.0718109967       -6.6448385425        3.6895163628
 C       -11.0550309763       -7.2563238064        5.8059982494
 C       -12.9628059945       -7.7764229167        3.9245631201
 C       -14.7358387629       -2.0296983929        3.0941872800
 C       -13.1117653554       -2.5498217528        1.0166945139
 C       -16.0015274548        3.0011574223       -0.3636394649
 C       -14.1353121938        1.8967570538       -1.4735078720
 C       -11.3013769641        7.3492192532       -4.8458540398
 C        -9.4160845990        5.8780713861       -4.1162319866
 C        -4.7180428122       11.0005077558       -4.5441426637
 C        -3.6661264314        8.8936639834       -5.1395853683
 C        -5.0045399341        8.6940250262        1.9253437321
 C        -7.2013861848        7.5948534589        1.9689457037
 H        -5.9000287551       11.5291653755        1.6275031114
 H        -6.8312463971       11.9196330970        0.0872465602
 H        -5.3230230346       11.1964917836        0.0737619764
 H        -4.1231148474        6.4197857364       -0.3879639208
 H        -3.7234249846        8.0817132739       -0.2210777641
 H        -5.1148483228        6.9485279972       -2.4132783129
 H        -3.3377311914        7.4741098876       -2.6411116823
 H        -7.6313212340       10.6554835816       -5.3719255661
 H        -7.8480846759       10.6565717799       -3.5226706733
 H        -8.8865984898        8.4043251385       -5.4662444011
 H        -9.7053902394        9.9514106826       -5.0800064429
 H       -11.9722381412        4.8979433217       -3.4981838847
 H       -13.0483604252        6.0990371474       -2.8911549443
 H       -12.1607062589        5.1364181764       -0.3936088274
 H       -11.7519681801        3.7808297243       -1.4309570119
 H       -13.2223123503        2.3547587191        2.6833941602
 H       -12.0428727173        2.2607177867        1.5779219490
 H       -13.2009291048        0.2238534769        0.4488132728
 H       -14.5334093606        0.4906639570        1.3880519015
 H       -12.7425288353       -2.4462375674        5.2853768849
 H       -11.1163685879       -2.8628400965        5.2786309116
 H       -13.6709105711       -4.5905251172        4.5152057718
 H       -12.5205999009       -4.9512971528        5.9427108969
 H        -9.3608710972       -5.6757446885        3.5797052015
 H        -8.3606488812       -6.9423311694        2.9806400964
 H        -8.5894186922       -6.8536577360        4.6367426361
 H       -10.4568993061       -8.1382655052        5.9066723797
 H       -11.9440500818       -7.5544870198        6.4608126552
 H       -10.5849231242       -6.2941769032        6.1494354774
 H       -13.7019575400       -7.0854711769        3.8888978594
 H       -13.1953022495       -8.5879373792        4.7177255409
 H       -12.9585660721       -8.3166840506        2.9402944434
 H       -14.7005105198       -2.8806703119        3.6635105472
 H       -15.5599379420       -2.1700887422        2.2992275474
 H       -14.9511016665       -1.2085334116        3.7166701691
 H       -12.5804264575       -2.0198893173        0.2249432877
 H       -13.9114189557       -2.9707349922        0.5261546301
 H       -12.5236569638       -3.5099869037        1.0644783629
 H       -16.3439027952        3.0148166093       -1.3636396421
 H       -16.4573287433        3.8855953034        0.1713445039
 H       -16.3453605664        2.1896540055        0.2061105735
 H       -14.6792689692        2.0472965319       -2.3947100167
 H       -14.2489837550        0.9281984816       -1.1016939381
 H       -13.1543798649        2.2328270121       -1.8523412903
 H       -10.6834319352        7.5358492553       -5.7404161890
 H       -11.8513517917        8.2698653220       -4.6463735349
 H       -12.0872185232        6.6210815755       -5.0216240994
 H        -8.5991607634        6.2795869297       -4.6901894973
 H        -9.9397716071        4.9316823392       -4.2858793386
 H        -8.9356926208        5.6512867119       -3.1516555145
 H        -3.6085191943       11.3972639078       -4.6351319230
 H        -5.1458122450       11.5583108224       -3.6950946278
 H        -5.1980274998       11.3653236642       -5.4101417339
 H        -3.7409429504        9.5913934259       -5.9144314597
 H        -3.9396025737        7.8367339040       -5.3701147690
 H        -2.6654952758        8.9945897716       -4.6727760006
 H        -5.0602964536        9.1920752929        2.9121373673
 H        -4.2635522439        9.3319052529        1.4142437641
 H        -4.5623838912        7.6827681328        2.2464629900
 H        -8.0649232200        8.1383159863        2.3907782312
 H        -6.6764406320        7.0975580698        2.8515929443
 H        -7.6292160930        6.8089704187        1.3477266490
 Na       -8.9049397530        7.7883869290       -0.2512297035
