117

 C        -6.1499679663       11.3070507497        0.9250373493
 C        -6.9409189878       10.0043428622        0.8694161510
 O        -8.1016061322       10.0508722100        0.6762775978
 C        -6.2070932229        8.6505055375        1.0133519414
 C        -5.9539328755        7.8989557776       -0.3894311344
 O        -6.9504146215        7.6211172141       -1.0534983321
 C        -4.4965656270        7.5133147551       -0.8701270577
 C        -4.3410378696        7.6037730858       -2.5004545538
 C        -4.6459206815        9.0366302011       -2.7735000585
 O        -4.5545472266        9.8977260911       -1.9382402698
 C        -4.7564070632        9.3569788527       -4.2948144296
 C        -6.1621023838        8.9392503068       -4.7847863076
 O        -6.1559364784        7.8349966711       -5.4016303247
 C        -7.3749056197        9.6905118903       -4.3313665192
 C        -8.6800903746        8.9770856362       -4.8001108483
 C        -9.6235597302        8.4531972356       -3.6168353241
 O        -9.5524491645        9.1103699486       -2.5594871451
 C       -10.3111275780        7.1575222258       -3.7824578203
 C       -11.0457909342        6.6920860578       -2.4288019735
 O       -10.5458004342        6.8353276542       -1.3429668321
 C       -12.3830164396        5.9360637135       -2.5863584322
 C       -12.6115176543        4.8963557936       -1.4905673767
 C       -14.0988913639        4.3749112675       -1.3267214966
 O       -14.9077541483        5.0644411057       -1.8437982479
 C       -14.4312595271        3.0508849683       -0.5816092328
 C       -13.6995540644        3.0968870290        0.8052387320
 O       -13.4098337438        4.1879335885        1.2860545253
 C       -13.4527803534        1.8285853955        1.7807285387
 C       -13.5337641156        0.3585190629        1.4279546495
 C       -12.8727518812       -0.4283445037        2.4408118389
 O       -12.1771529819       -0.0261010150        3.2602235277
 C       -13.1576287786       -1.9877268543        2.5146340041
 C       -11.8685239798       -2.5614452868        3.3451852612
 O       -10.7640457644       -2.5332974599        2.9557081618
 C       -12.2690326504       -3.0750695451        4.9618210250
 C       -12.8053695488       -4.5265442700        5.0119096116
 C       -12.2048572563       -5.6025853839        4.0248548076
 O       -12.0445700448       -5.2490678892        2.8894593236
 C       -11.7932179543       -7.1110112369        4.5419963596
 C       -10.4373097563       -7.5558736027        3.7848977259
 O       -10.4846761095       -8.5243993215        3.0769538306
 C        -9.0693661240       -6.8116660888        3.9267431986
 C       -11.6404959045       -7.0224889370        6.0849925327
 C       -12.8748210109       -8.0961671998        4.1677579905
 C       -14.6283380217       -2.3190239141        3.0935754780
 C       -12.9888783315       -2.6568377844        1.1832029340
 C       -15.9965736459        3.0381614352       -0.3217771294
 C       -13.7727684737        1.8231029452       -1.2811516017
 C       -11.3139212578        7.3217144656       -4.9409931659
 C        -9.3594479508        5.9599378289       -4.1022491515
 C        -4.5947705542       10.9399225646       -4.2062545246
 C        -3.8286591476        8.5239288016       -5.3528241608
 C        -4.9485263627        8.8413837911        1.8221498930
 C        -7.1153069798        7.6798964423        1.9001871485
 H        -5.9520603559       11.8232497904        1.8455003751
 H        -6.6093796067       12.0348369738        0.2783785397
 H        -5.1578195855       11.3287997873        0.4653698683
 H        -4.2501636990        6.4619537765       -0.6252020623
 H        -3.5726464317        8.0963091841       -0.5254693521
 H        -4.8216711710        6.7150677317       -3.0591735955
 H        -3.3225800300        7.4781305011       -2.5638350074
 H        -7.3243751110       10.7678263117       -4.7211731035
 H        -7.3348868123        9.7064159105       -3.3202005939
 H        -8.2692632345        8.2893088002       -5.5192067465
 H        -9.2797473745        9.7230919358       -5.3931096819
 H       -12.5738027322        5.6447059600       -3.5860578643
 H       -13.1383296981        6.7172147191       -2.3703981323
 H       -12.3951956736        5.5185932569       -0.5263262409
 H       -11.8586088300        4.2019284420       -1.6881992044
 H       -14.2740438519        2.0674590959        2.6247979498
 H       -12.5254058043        2.1392324934        2.3359395355
 H       -13.0315501485        0.0647505126        0.5117429412
 H       -14.6302229384        0.0610116507        1.2017355800
 H       -12.9514966324       -2.3334128494        5.4839534315
 H       -11.3818371466       -2.9391648281        5.5642507018
 H       -13.8265777648       -4.4011986199        4.5568584967
 H       -12.7483457918       -4.7356108505        6.0197794249
 H        -8.9299144658       -6.0046178835        3.1154396110
 H        -8.2892498128       -7.5617495819        4.0188490030
 H        -9.0709599696       -6.3103884108        4.9366825576
 H       -11.2337255982       -8.0418823954        6.3711986927
 H       -12.4786915231       -6.9437045147        6.7579799462
 H       -10.9629012756       -6.1507359247        6.2213307704
 H       -13.8960459718       -7.5872398044        3.8769661169
 H       -13.1803233689       -8.8916157778        4.8053805015
 H       -12.5770331247       -8.4552469225        3.2296013219
 H       -14.8442274717       -3.4114723032        2.9018300447
 H       -15.3189488305       -1.7695375733        2.5557210631
 H       -14.6182526932       -2.0856383865        4.1763773311
 H       -12.0097579860       -2.4908175636        0.7195560350
 H       -13.7127636551       -2.4904120797        0.2851409536
 H       -13.0325234384       -3.7020688939        1.2063872274
 H       -16.4666065148        3.4754140434       -1.1861112376
 H       -16.2139009707        3.7000197457        0.4703231768
 H       -16.3874452932        2.1380502547        0.1018815092
 H       -13.5825515301        2.0520662667       -2.3493935607
 H       -14.5443551149        1.0262179001       -1.0603982851
 H       -12.7707554494        1.6039665586       -0.9531732186
 H       -10.8095821149        7.2047366984       -5.9578987720
 H       -11.7617945292        8.3370826546       -4.9436209416
 H       -12.1389546826        6.5536313521       -4.9549772729
 H        -8.8667351921        6.2244368454       -5.0246092074
 H       -10.0142552843        5.1132376320       -4.0859504768
 H        -8.6154862558        5.6898096166       -3.3470386673
 H        -3.7061393195       11.3094480347       -3.8120396150
 H        -5.4150773983       11.4057502757       -3.6601701956
 H        -4.6055503678       11.3866381964       -5.3052329749
 H        -4.3885378171        8.5769991467       -6.3330781155
 H        -3.8138473928        7.5811830727       -4.9456182636
 H        -2.8668309984        9.0241668337       -5.3979225609
 H        -5.1158181006        9.2472798567        2.8051224029
 H        -4.2365259849        9.5556391381        1.3964440570
 H        -4.4083526033        7.9719150001        1.8928238667
 H        -7.6108522648        8.2085857200        2.6584112064
 H        -6.5032041518        6.8861171038        2.4189162755
 H        -7.8501090378        7.1572215274        1.3241114409
 Na       -9.0089720199        8.3746687722       -0.4766283433
