117

 C        -6.0393419178       11.3574279704        0.9916029627
 C        -6.9160701153       10.0868535240        0.8017797632
 O        -8.1646030581       10.2695540791        0.6227282180
 C        -6.1073822177        8.6702815398        1.0152425347
 C        -5.8763929098        7.9215848591       -0.4281205651
 O        -6.8918515728        7.5246284972       -1.0278311785
 C        -4.5137832232        7.4006059295       -0.7594478065
 C        -4.3935316902        7.5351467754       -2.4049871990
 C        -4.3761161937        8.9620069333       -2.8323558305
 O        -4.4387882047        9.8367025456       -2.0067650864
 C        -4.5735865232        9.3036918632       -4.4124543801
 C        -6.0788286852        8.7992517716       -4.7443897630
 O        -6.2337402186        7.8811847160       -5.5050572304
 C        -7.3015205661        9.5784913647       -4.2876755642
 C        -8.5797181527        8.8696061678       -4.7652697031
 C        -9.5084394643        8.4150730035       -3.5847460692
 O        -9.6901418165        9.1797478584       -2.6780437983
 C       -10.3643479466        7.0729605189       -3.9061700169
 C       -11.1162663194        6.7996831463       -2.4687828395
 O       -10.6093174045        7.0114098653       -1.3899257239
 C       -12.5035262496        6.1251590642       -2.4802967200
 C       -12.6316280561        5.0215038266       -1.4339154218
 C       -14.0543573353        4.4858943274       -1.4038840862
 O       -15.0448689419        5.0691521388       -1.8543148067
 C       -14.4149670440        3.0038881519       -0.5797593845
 C       -13.7446703000        3.1303073004        0.7848328808
 O       -13.3005577359        4.1746146668        1.1429600853
 C       -13.8027760182        1.8814400464        1.7727790259
 C       -13.6304778456        0.3973289104        1.2952565509
 C       -12.9507102396       -0.6117559257        2.5900169167
 O       -12.2038411511       -0.0229059753        3.3653133373
 C       -13.0647753399       -2.1813013430        2.5793001222
 C       -11.8871015594       -2.7778718254        3.4977517734
 O       -10.7673811915       -2.7789396774        3.1085156261
 C       -12.2047859403       -3.1767374334        4.8728905784
 C       -12.8824867241       -4.5632015773        5.0716404412
 C       -12.2150766956       -5.6250834987        4.1389295169
 O       -12.0935286068       -5.3478276382        2.9377566863
 C       -11.8345264243       -7.0275901134        4.6289940732
 C       -10.5456615294       -7.5330826275        3.9608958282
 O       -10.5425407898       -8.4521852756        3.1606655830
 C        -9.1826015955       -6.7734863671        4.1719497333
 C       -11.7638620354       -6.9266581380        6.2050383883
 C       -12.9911228669       -8.0943461113        4.2451219121
 C       -14.4918422198       -2.3832922590        3.1228317786
 C       -12.9319731756       -2.7006609040        1.0721315445
 C       -15.8806304826        2.9145138727       -0.2241645816
 C       -13.7385713815        1.9007418909       -1.3946910735
 C       -11.3642611185        7.4126959022       -4.9809528801
 C        -9.2375462032        6.0368494650       -4.1136744884
 C        -4.5991439883       10.8959431693       -4.4937592030
 C        -3.5447885777        8.6434066953       -5.2225278620
 C        -4.7736226513        8.8455437269        1.7142795157
 C        -7.0223324325        7.6594650961        1.7927987061
 H        -5.9573251804       11.4365301455        2.0136763967
 H        -6.4663896941       12.3739799972        0.7366442422
 H        -5.0541951963       11.4845544403        0.6270562380
 H        -4.5131232290        6.3702826421       -0.4766768918
 H        -3.6126792818        7.8447837144       -0.3182298955
 H        -5.4172596700        7.1557355917       -2.8512171528
 H        -3.5841530493        6.8489728768       -2.7196651564
 H        -7.2098903734       10.5773333093       -4.7829968057
 H        -7.2727061443        9.7882252071       -3.1586935854
 H        -8.1309886053        8.2157846505       -5.4228193031
 H        -9.2749164799        9.5103600532       -5.3577274504
 H       -12.6372174833        5.7082133388       -3.4958492265
 H       -13.3614487250        6.7680239438       -2.3107557457
 H       -12.2342969243        5.3466132469       -0.4010518759
 H       -12.0399794731        4.2060230052       -1.9543023848
 H       -14.5036818802        2.0558279874        2.5298566488
 H       -12.8146031996        2.1428950493        2.2901215101
 H       -12.9768883332        0.2803521960        0.3810483770
 H       -14.6281285582       -0.0790270670        1.0535955371
 H       -12.6257779889       -2.3411433841        5.2966221416
 H       -11.2606994472       -3.2813758681        5.3544008870
 H       -13.9219857593       -4.5361791488        4.6589689967
 H       -12.7085467595       -4.6505493470        6.1235261639
 H        -9.0780399786       -6.4280472242        3.1254049224
 H        -8.3988770696       -7.4677064209        4.4690322461
 H        -9.0892654061       -5.8158442799        4.8648928452
 H       -11.6621870033       -7.8957647166        6.5394765076
 H       -12.6907054744       -6.5730416659        6.6620970355
 H       -11.0629917251       -6.1783893775        6.5251739463
 H       -14.0447610038       -7.8568354697        4.2672576940
 H       -12.9512224012       -9.0697406048        4.8921296525
 H       -12.7699936585       -8.3204032190        3.1907807684
 H       -14.9109749250       -3.2291657270        2.6171480742
 H       -15.1709969244       -1.4720719407        2.8554403789
 H       -14.4042359220       -2.5663161925        4.1958801365
 H       -11.9207665843       -2.9176175655        0.7625270465
 H       -13.3066986625       -2.0802909734        0.2754250973
 H       -13.4059696443       -3.6147818353        0.8085598387
 H       -16.4824634677        3.1553896612       -1.1147322708
 H       -16.2840520390        3.5545310983        0.6635160085
 H       -16.0348250649        1.9304907189        0.2084848590
 H       -13.4913467509        2.3485913789       -2.3885461052
 H       -14.3269928476        1.0498628562       -1.4249171609
 H       -12.7427627212        1.7082888924       -0.9941978010
 H       -10.7717142878        7.6068772633       -5.9374125768
 H       -12.0059095754        8.2393729205       -4.8346199427
 H       -11.8398028639        6.4560318395       -5.2533816891
 H        -8.7643637809        6.2146671125       -5.0454786011
 H        -9.6487117460        5.0631898266       -3.9533846522
 H        -8.5118595596        6.1190635357       -3.2968676951
 H        -3.8231573553       11.5250229447       -4.0811771882
 H        -5.4926089794       11.2376030190       -4.1577574995
 H        -4.5484072460       11.1298701408       -5.4969186536
 H        -3.8817296666        8.6411839431       -6.2502541024
 H        -3.4941954488        7.6655928467       -4.8225243673
 H        -2.6503831487        9.2266533038       -5.0355522972
 H        -4.8442751911        9.3493785622        2.6880890543
 H        -4.0022895754        9.4172887503        1.1947259685
 H        -4.2320042130        7.9047618726        1.7760995820
 H        -7.2084031791        7.8952457719        2.8086223307
 H        -6.5450818741        6.5980347123        1.8207939592
 H        -7.9294980632        7.5349735257        1.2585457851
 Na       -9.2618183265        8.5829773488       -0.6814829762
