117

 C        -5.9221084313       11.3624253329        1.1680686468
 C        -6.6530277567       10.1071888885        0.7816796093
 O        -7.6525441587       10.2411819291        0.0986798031
 C        -5.9631198678        8.6554718171        1.0353278869
 C        -6.0621539740        8.0163250592       -0.4699062845
 O        -7.1008029951        8.1672085060       -1.1147897572
 C        -4.9300213290        7.2285519501       -1.1351746583
 C        -4.6014557363        7.4455220380       -2.6029676654
 C        -4.1923497698        9.0755556591       -2.9243164624
 O        -4.1603915402        9.9548111305       -2.1464056557
 C        -4.3237748969        9.3301118468       -4.5407745894
 C        -5.7251129991        8.4862382506       -4.9681408503
 O        -5.5984905121        7.5841549569       -5.7841155047
 C        -6.9616945644        9.0564437814       -4.2593141838
 C        -8.3521832275        8.8316719571       -4.9401903502
 C        -9.5994335638        8.5855070222       -3.8151886895
 O        -9.9867850481        9.5826176648       -3.2131356967
 C       -10.5426250573        7.3056160408       -3.8514022765
 C       -11.3321880840        7.1088187299       -2.4409788207
 O       -10.8178688047        7.2995582619       -1.3715492564
 C       -12.6222424938        6.1887604475       -2.5876065961
 C       -12.8048831684        5.2263480030       -1.4616916297
 C       -14.1801787801        4.5096933443       -1.2684225146
 O       -15.2541346339        4.9635716328       -1.6578901116
 C       -14.2421353991        2.9926949267       -0.6611708614
 C       -13.6247092116        2.7799808500        0.7967771061
 O       -12.7822638352        3.5827705985        1.0426720595
 C       -13.9648957731        1.6196939367        1.8520153841
 C       -13.4041737628        0.2381028299        1.4351900372
 C       -12.8632201997       -0.5878844217        2.7266549170
 O       -12.5300481330        0.0530804330        3.6758825184
 C       -13.0015430211       -2.0825986659        2.5138791222
 C       -11.8966050733       -2.9018079693        3.4270826104
 O       -10.8770524153       -3.1249940567        2.9565656063
 C       -12.3167467089       -3.0791885071        4.9184481252
 C       -13.0831142254       -4.4026412415        5.1960712730
 C       -12.5507787574       -5.7414946772        4.4191531313
 O       -12.3981441485       -5.6539248782        3.1993667733
 C       -12.1787531839       -7.1551997553        5.0648472516
 C       -10.8238320373       -7.4745670109        4.3396989777
 O       -10.5426656553       -8.3500981575        3.5760809582
 C        -9.6611149493       -6.5811094840        4.8611925640
 C       -11.8566796231       -7.1370889261        6.6010317729
 C       -13.3538095297       -8.0939983614        4.6083938786
 C       -14.5099033051       -2.3336188757        2.8753895655
 C       -12.6784583617       -2.4891667403        1.0387846351
 C       -15.7498862609        2.5949767537       -0.5606049856
 C       -13.4891618649        2.1634187692       -1.7617802136
 C       -11.3865062014        7.3264948093       -5.1241278687
 C        -9.6080941929        6.0865290755       -3.7828738239
 C        -4.3294614195       10.8459488916       -4.7919163895
 C        -3.2269107764        8.3500280301       -4.9803699674
 C        -4.5417306420        8.7254021299        1.5627520002
 C        -6.8378776147        8.0270371840        2.0767289023
 H        -5.2257593275       11.6032501454        1.8688787200
 H        -6.6708528287       12.1739778651        1.5257284657
 H        -5.5139233577       11.8402729116        0.2197712964
 H        -5.0356588731        6.1667996117       -0.7764795212
 H        -3.9000371982        7.6341400709       -0.7246919876
 H        -5.4788833701        7.0173294282       -3.2214596030
 H        -3.8130720741        6.8906730937       -2.9022215999
 H        -6.8962455407       10.1503775782       -4.0822201133
 H        -6.9095923029        8.7999817828       -3.2807730694
 H        -8.2819184709        8.0124685338       -5.6536270959
 H        -8.6949961070        9.7638107510       -5.5428141530
 H       -12.6270786952        5.6670002749       -3.5263343918
 H       -13.4223610243        6.9301376307       -2.5759749218
 H       -12.5856786131        5.7323057735       -0.4847768245
 H       -11.9978908324        4.6125340209       -1.6484512154
 H       -15.1153476654        1.5279196621        1.8953329365
 H       -13.6581350394        2.0621042571        2.8945354675
 H       -12.7051726184        0.2998789226        0.6494552778
 H       -14.3793092091       -0.2703413806        1.1956429910
 H       -12.9850245592       -2.1647274107        5.1225084344
 H       -11.3393987934       -3.0876243011        5.5022564724
 H       -14.1751978959       -4.1177820452        4.9346433506
 H       -13.0196335786       -4.3740993826        6.2175472507
 H        -8.7352204982       -6.9150741518        4.4288155311
 H        -9.5944244502       -6.6448530660        5.8828632793
 H        -9.8510213150       -5.5062208249        4.4889724113
 H       -11.3272316712       -8.1278899223        6.6462147124
 H       -12.8360853928       -7.1115415392        7.0852315214
 H       -11.3764610389       -6.2476515537        7.1790970216
 H       -13.9429685179       -8.3811630920        5.4954473725
 H       -13.1318614378       -9.1165736025        4.3439823968
 H       -14.0125005766       -7.6696597231        3.9592664422
 H       -14.5873161461       -3.2828297980        3.3351791585
 H       -14.9816405627       -2.4110509767        1.9121695747
 H       -14.9476326511       -1.5186213306        3.4095503266
 H       -11.6063948583       -2.7001455945        0.8229339704
 H       -12.9905150308       -1.8557369350        0.1306969314
 H       -12.9891141488       -3.4761589424        0.7697048623
 H       -16.2353346999        2.6073024699       -1.4985938323
 H       -16.2701329758        3.2543450570        0.1223888239
 H       -15.8190814056        1.6268529480       -0.1658951077
 H       -14.2445469890        1.8214563750       -2.5606610328
 H       -13.1162629220        1.2834044483       -1.2051667784
 H       -12.5302953693        2.6615676414       -2.0816942312
 H       -11.1388822405        7.8243514781       -6.1015392760
 H       -12.2629916398        7.8350292450       -4.8667871280
 H       -11.4553459963        6.2884432152       -5.4919313378
 H        -8.9117373277        5.9333921592       -4.6299670489
 H       -10.2674841085        5.1743163943       -3.7275851899
 H        -9.0637940776        6.2416982065       -2.8040113211
 H        -3.2800368714       11.2962462829       -4.9736999041
 H        -4.6776128468       11.2746337187       -3.7904533073
 H        -4.8405176731       11.3386871084       -5.6673112001
 H        -2.8147668304        8.6069023562       -6.0167321330
 H        -3.5786831281        7.3634871070       -5.0849459784
 H        -2.5819287845        8.4968102017       -4.1103505753
 H        -4.5400108476        8.9375141196        2.6266722063
 H        -3.7472905134        9.2987658745        1.1409618532
 H        -4.0843454485        7.8211596609        1.4513637244
 H        -6.5578405721        8.3775117300        3.0108855894
 H        -6.9221818993        6.8418230904        2.1833507095
 H        -7.8242846371        8.3174735650        1.8471111930
 Na       -9.2283157446        8.9363876058       -0.8855329870
