117

 C        -5.7061634296       11.6624726361        1.0097146645
 C        -6.4718411759       10.4555536976        0.5365366728
 O        -7.5120250311       10.6681370455       -0.0559380844
 C        -5.9152931460        8.9701314797        0.6840016455
 C        -5.9066768729        8.0260774337       -0.6399458986
 O        -6.9327594934        7.9412645361       -1.3433131490
 C        -4.7431290194        7.0341127785       -0.7905492802
 C        -4.4549183369        7.0154320753       -2.3950406939
 C        -4.4646735192        8.5257628400       -2.9698269709
 O        -4.7732646702        9.5034725521       -2.2171875054
 C        -4.4088375410        8.7905152455       -4.5284996752
 C        -5.8716482599        8.3137901071       -5.1765922767
 O        -5.9702563096        7.8806045233       -6.2996198590
 C        -7.0848888836        8.8175446882       -4.4252417166
 C        -8.3771271085        8.1454017143       -4.8961985783
 C        -9.4930059231        8.2627669204       -3.8766286219
 O        -9.5743296330        9.2805757856       -3.2587646908
 C       -10.5010572995        7.1216530787       -3.8123679406
 C       -11.3010994044        7.2217421528       -2.5038588940
 O       -11.0625546990        8.1583958584       -1.7296403519
 C       -12.6116132554        6.3313891655       -2.3188944311
 C       -12.4592789255        5.4266061834       -1.1071101353
 C       -13.8268140986        4.6150432390       -0.9703473382
 O       -14.8124014034        5.1698880378       -1.3455287137
 C       -13.7197795758        3.0095380770       -0.8458461468
 C       -12.8587874626        2.6498512232        0.4285337771
 O       -11.7732872254        3.1803757611        0.4662032850
 C       -13.4171128832        1.6967220057        1.5145784766
 C       -12.9760180607        0.1978786747        1.3529955062
 C       -13.1052908302       -0.7616942506        2.5482570817
 O       -13.3832557719       -0.3418519878        3.7146525512
 C       -13.0350494494       -2.3335049608        2.2774861790
 C       -12.3192738422       -2.9504156161        3.5364766294
 O       -11.1204046011       -3.3170096910        3.4250160746
 C       -13.0273328461       -2.9537294968        4.9471810478
 C       -12.6365562416       -4.2295149901        5.6001449200
 C       -12.9272840577       -5.4519867854        4.7314817530
 O       -13.4740226147       -5.3361059047        3.6435210478
 C       -12.5652954656       -6.8751899496        5.4053195185
 C       -11.0992272492       -7.3119119095        5.1206617582
 O       -10.8009482576       -8.3892224991        4.7285059331
 C       -10.0206412976       -6.1530473357        5.3654249309
 C       -12.5522500504       -6.9041876691        6.9344326520
 C       -13.6272131189       -7.8167921883        4.8691365786
 C       -14.6188741208       -2.8098489496        2.2336855854
 C       -12.3202042666       -2.6336227441        0.8995771820
 C       -15.0822045884        2.5156676123       -0.7304499108
 C       -12.9674918309        2.5956566462       -2.2071363469
 C       -11.3953353083        7.3137433323       -5.0439252659
 C        -9.7183523314        5.7727550039       -3.6544404988
 C        -4.3008869609       10.3774821138       -4.6818836742
 C        -3.3472433372        8.1069946903       -5.3139782577
 C        -4.5938001340        8.8601888581        1.5091877324
 C        -6.9806189389        8.3118250980        1.5814454194
 H        -6.1109822852       12.4031349484        1.7939525719
 H        -5.6678112509       12.4145619310        0.3075523187
 H        -4.7534458583       11.4606569382        1.4578825290
 H        -4.8278600145        5.9858953975       -0.2826146771
 H        -3.8017667172        7.4482601492       -0.4308551273
 H        -5.2783006155        6.5716850509       -2.9474806393
 H        -3.5174041957        6.2858750805       -2.6183267071
 H        -7.0846522576        9.7898314517       -4.7605036676
 H        -7.1218810556        9.0514618786       -3.3180253840
 H        -8.1749924779        7.1000353030       -5.1902165480
 H        -8.7615659432        8.5527014111       -5.8619834267
 H       -12.8125754839        5.7122007220       -3.2121120728
 H       -13.4077556768        6.9860485808       -2.0977109521
 H       -12.1600835858        6.0177370322       -0.2381711753
 H       -11.6216781308        4.6085183962       -1.1392587261
 H       -14.5438024261        1.6213406970        1.6312572449
 H       -13.0494004156        1.9683210251        2.5394551131
 H       -11.9526416768        0.0642512397        0.9369943325
 H       -13.7327572416       -0.2882001814        0.7271533190
 H       -14.1051811721       -2.9424006674        4.7215530255
 H       -12.7684150761       -1.9672368387        5.4700211615
 H       -13.1543076681       -4.3075918382        6.5582632593
 H       -11.6409648156       -4.0756844748        6.1291223679
 H        -8.9715565002       -6.5307400222        5.4967557622
 H       -10.3104572116       -5.5815942938        6.2968168793
 H       -10.0614641557       -5.5538939005        4.5289198526
 H       -12.4668068459       -7.9206316736        7.3917754049
 H       -13.5227850879       -6.4362952047        7.3981564745
 H       -11.6206994574       -6.4507094470        7.2142820221
 H       -14.6676054906       -7.5400216044        4.9246693847
 H       -13.5966778850       -8.8315573475        5.1601020006
 H       -13.4484332048       -7.8971074589        3.7878947719
 H       -14.6597955300       -3.8205594724        1.8897784682
 H       -15.2052242136       -2.1134080273        1.6034232267
 H       -15.0593882429       -2.7496775539        3.1852691410
 H       -12.4117411099       -1.8159255860        0.1289738931
 H       -12.7292718345       -3.4745289270        0.3384299101
 H       -11.1899626164       -2.9017727114        0.9993350024
 H       -15.5036670714        2.3474541673       -1.6721189075
 H       -15.6988736765        3.1703953067       -0.1833761251
 H       -15.0607897697        1.4879996095       -0.4663907700
 H       -13.3255463549        3.2028001274       -3.0602242558
 H       -13.1227575475        1.5030195300       -2.2981813297
 H       -11.8370099824        2.7097037996       -2.0721929127
 H       -10.6959235452        7.2691894564       -5.9035951479
 H       -11.9669558063        8.2929774805       -5.1531507992
 H       -12.1765599821        6.5492181115       -5.2465616718
 H        -9.3047174177        5.4211424706       -4.6244351418
 H       -10.4892527450        5.0172393773       -3.4069213467
 H        -8.8569957255        5.9041846833       -2.9783580362
 H        -4.1268185231       10.9121764136       -3.7484031533
 H        -5.1901080168       10.9361340476       -5.1275717922
 H        -3.5172266217       10.8001424219       -5.3786289281
 H        -3.7487561200        7.9595652097       -6.2688190045
 H        -3.3048122394        7.0838395897       -4.8049241736
 H        -2.4592884560        8.7428862374       -5.3490632959
 H        -4.6515472632        9.2469354861        2.4720017308
 H        -3.7261316259        9.2847401930        1.1173607935
 H        -4.3044545094        7.7960446475        1.6937324129
 H        -6.9016538454        8.6843285283        2.6474233507
 H        -6.8494479721        7.3124494316        1.5971708916
 H        -8.0264470218        8.5073974129        1.2503479101
 Na       -8.9308134407        9.5847237596       -1.0523845496
