117

 C        -5.3175264768       11.5587111533        0.5402336695
 C        -6.2966076080       10.4670433556        0.1439586892
 O        -7.4193808328       10.6826026859       -0.3403361507
 C        -5.9717382137        9.0014558596        0.7591936488
 C        -6.0911550414        8.1910594755       -0.5588919513
 O        -7.1718611911        7.9607596664       -1.1532270505
 C        -4.9670209001        7.2770605111       -1.0006246746
 C        -4.7565626925        7.3167677370       -2.5441432441
 C        -4.6063216393        8.6079158658       -3.1467129066
 O        -4.7976991035        9.5564278799       -2.3383949793
 C        -4.2408229045        8.8083119164       -4.6232008513
 C        -5.7103369770        8.4193106885       -5.3814380582
 O        -5.7345704893        7.7465802309       -6.3550582530
 C        -7.0490861980        8.9295416531       -4.8278176728
 C        -8.2776853677        7.8945104462       -4.9085311665
 C        -9.3933010943        8.2455986481       -3.9902357936
 O        -9.4711201476        9.3861673953       -3.5636475238
 C       -10.5728376607        7.1449423019       -3.6822124502
 C       -11.2881136928        7.4800095096       -2.3905090735
 O       -10.6514333639        7.7664482172       -1.3620375713
 C       -12.6808699448        6.7433142924       -2.0676643603
 C       -12.3206405064        5.5576133788       -1.1689814478
 C       -13.6405187748        4.5852480736       -0.8694111503
 O       -14.7374349687        5.0150547915       -0.6181326696
 C       -13.3953525802        3.0351564897       -0.8698970335
 C       -12.3937709397        2.5701930089        0.2856166576
 O       -11.2858596451        2.9051666365        0.2573044430
 C       -12.8144144795        1.6141569456        1.4812820728
 C       -12.8163375410        0.1213250110        1.0301388799
 C       -13.3461335880       -0.7883641895        2.0885777611
 O       -13.9527954322       -0.2328515928        3.0840433306
 C       -13.0976752045       -2.2881753260        2.1366956330
 C       -12.5957832908       -2.8141775823        3.5516159919
 O       -11.4604868706       -3.3405972905        3.6086920105
 C       -13.2471573098       -2.6311106604        4.9286952874
 C       -12.7954672067       -3.8146047122        5.7628679824
 C       -13.1385781165       -5.2346705880        5.1640209625
 O       -13.7835012425       -5.1502292470        4.0982266981
 C       -12.7488505304       -6.6988451996        5.8114760454
 C       -11.2278141287       -7.1819453798        5.5084518641
 O       -11.0601493824       -8.3345774090        5.3077319567
 C       -10.1801097551       -6.0798282636        5.2202764253
 C       -13.2172921123       -6.8092450599        7.2634799617
 C       -13.5549892340       -7.6730801133        4.9297044107
 C       -14.4433548234       -2.9897513725        1.8130358951
 C       -12.0650915914       -2.7478354387        1.0081991234
 C       -14.7091062509        2.3976083992       -0.7181979129
 C       -12.5074415029        2.4696992761       -2.1607897516
 C       -11.6501669479        7.1986914435       -4.8182716666
 C       -10.0204251997        5.6234938132       -3.5167450130
 C        -4.0095832443       10.2352901064       -4.8528783746
 C        -3.2848890464        7.5858598129       -5.0850213543
 C        -4.7311256451        8.8387894037        1.6285423383
 C        -7.1095913489        8.4784930534        1.7026119875
 H        -5.6514795016       12.6263728878        0.2755679971
 H        -4.5363558540       11.6766186940       -0.1723872654
 H        -4.9888228646       11.6723004993        1.5768692181
 H        -5.1549442969        6.2217341381       -0.7900352920
 H        -4.0209112588        7.4792745003       -0.5265511979
 H        -5.6601383852        7.0091828238       -2.9237247671
 H        -3.9923663051        6.6161343170       -2.9324477661
 H        -7.2419029875        9.8757043030       -5.2352250013
 H        -6.9671950940        9.1923166232       -3.7961071207
 H        -8.0588582593        6.8444494189       -4.8332058804
 H        -8.6155084702        7.9682255598       -5.9971716666
 H       -13.4967683326        6.4373614145       -2.7953789627
 H       -13.0979567311        7.4718356099       -1.3705094234
 H       -12.0174767854        5.9430501020       -0.2963961939
 H       -11.5230341540        4.8902816167       -1.4941611580
 H       -13.8102169948        1.8649886316        1.7669387968
 H       -12.1440070886        1.8054879978        2.3973313295
 H       -11.8280205186       -0.1167708939        0.7368904555
 H       -13.3804479797        0.1420794863        0.0644714038
 H       -14.3156756048       -2.4347187727        4.9356705193
 H       -12.7602041228       -1.6003574481        5.1884616645
 H       -13.2860420433       -3.7323990991        6.7327559756
 H       -11.8457458855       -3.7055762901        6.1949569532
 H        -9.4914716976       -6.5964479924        4.5614623773
 H        -9.5792757025       -5.7059112024        6.0629630218
 H       -10.5590286887       -5.2994829147        4.6866789948
 H       -12.9535548654       -7.7208228447        7.6602982153
 H       -14.3217223217       -6.9658497152        7.1598644139
 H       -13.0164962257       -6.0328833733        7.9388606810
 H       -14.3990824204       -7.1255956192        4.6742137974
 H       -13.8722425394       -8.6232897602        5.3173185007
 H       -13.1328020130       -8.1099653208        4.0212786036
 H       -14.3567683123       -3.9693516005        2.1842135013
 H       -14.4981042319       -2.9848562752        0.6401868779
 H       -15.3081492537       -2.5523425854        2.2860869016
 H       -12.6149146094       -3.0122672546        0.1340186437
 H       -11.5294444380       -3.5528428871        1.3177849791
 H       -11.2960248380       -2.0056610098        0.6553712532
 H       -15.5521985271        2.9365867849       -1.2202012485
 H       -14.9909964387        2.3192029514        0.3938571639
 H       -14.7083149414        1.4006505238       -1.2703907381
 H       -13.0752083322        2.6209989634       -3.0624775613
 H       -12.2262572512        1.4758372793       -2.0476818261
 H       -11.7163725204        3.1861014052       -2.2184196563
 H       -11.2908346274        7.1709078879       -5.8315257616
 H       -12.3429101679        7.9875627098       -4.7275023876
 H       -12.4166456558        6.5130252498       -4.6027895696
 H        -9.4072785535        5.4111227542       -4.3591196394
 H       -10.8172903139        4.9208814373       -3.3489104424
 H        -9.3160640964        5.6310067110       -2.6770277723
 H        -4.5923221824       10.8475346966       -4.1698005126
 H        -4.2822259658       10.4880891208       -5.9197088048
 H        -3.0044356644       10.6805099838       -4.7916964763
 H        -2.8065048138        8.0173293580       -5.8863001893
 H        -3.9014512384        6.6615757277       -5.3303721357
 H        -2.5492077578        7.3259438679       -4.2925354235
 H        -4.9401679265        8.9591776487        2.7172987912
 H        -3.8352131379        9.4465767198        1.5198338470
 H        -4.4408462301        7.7098695489        1.5100767795
 H        -7.2029451052        9.2041492377        2.5935485155
 H        -6.9617698677        7.5375180736        2.0431766457
 H        -8.1104607113        8.6526135687        1.1966803245
 Na       -9.0165339929        9.0078868297       -1.2944830175
