117

 C        -5.3073395375       11.5533134078        0.2485051597
 C        -6.3300624237       10.4207940140        0.1864069151
 O        -7.3478651810       10.6874484789       -0.3214237321
 C        -6.0864764746        8.9481452414        0.7287576169
 C        -6.1254913045        7.9691185227       -0.4539902957
 O        -7.1051116641        7.7711000060       -1.1384021383
 C        -4.9079518439        7.1498971945       -0.9494651757
 C        -4.9292811612        7.2200012161       -2.5107496280
 C        -4.6196906543        8.7119458469       -2.9805079810
 O        -4.7309944577        9.8009888298       -2.3482031679
 C        -4.3524665811        8.7406904057       -4.6255174704
 C        -5.7362517494        8.3466136303       -5.4245879984
 O        -5.6254939642        7.6519520654       -6.4489532160
 C        -7.1492081028        8.9784025503       -4.9491683926
 C        -8.2130917962        7.8543655077       -4.9643022995
 C        -9.4794145544        8.2235871717       -4.0255273494
 O        -9.6291776841        9.2976322545       -3.5784282669
 C       -10.6424282430        7.1524102437       -3.6969659871
 C       -11.2699999318        7.2084169680       -2.2119742850
 O       -10.5861815882        7.7105869483       -1.3401119748
 C       -12.6858190112        6.7282601482       -1.8174456175
 C       -12.4242904352        5.4585490769       -1.0140474569
 C       -13.5448107090        4.4476944211       -0.7737440119
 O       -14.5520646221        4.9309569437       -0.3892789747
 C       -13.2995932408        2.9831944391       -0.7872448539
 C       -12.2210151911        2.6054376138        0.2998185277
 O       -11.0471664533        2.9585241755        0.1411209361
 C       -12.7047866452        1.6482297964        1.3261775653
 C       -12.7113609161        0.1305692107        0.8538843276
 C       -13.3646801583       -0.7608170308        2.0071899166
 O       -14.1330999827       -0.2344654094        2.8608817590
 C       -13.1066643693       -2.3050543534        2.0371089209
 C       -12.4808237722       -2.7698629467        3.5479957902
 O       -11.3880751178       -3.3532872226        3.6038416314
 C       -13.3473777736       -2.6011755988        4.8533723314
 C       -13.0926321224       -3.7469097078        5.8946185677
 C       -13.2832943247       -5.1465665414        5.2574618791
 O       -13.8455899489       -5.1709989370        4.1955026767
 C       -12.9689135882       -6.5403678680        5.7870602585
 C       -11.3247375244       -7.0412530925        5.4941395735
 O       -11.0332513836       -8.2466708345        5.6875044733
 C       -10.2912943827       -6.0616776813        5.2094258874
 C       -13.2380875773       -6.6695663586        7.2672427505
 C       -13.7462841302       -7.6320637211        4.9612758660
 C       -14.4447173674       -3.1229233408        1.9002812285
 C       -12.0154440203       -2.6284929325        0.9839179643
 C       -14.6874764964        2.1546951287       -0.7342641405
 C       -12.5387123661        2.5110421014       -2.1066130084
 C       -11.6460182350        7.3409516697       -4.8361443459
 C        -9.9417576401        5.7811671976       -3.5669809324
 C        -3.8108046082       10.0619297692       -5.1427779479
 C        -3.1829309660        7.6697511297       -5.0571891311
 C        -4.7750121734        8.7883091484        1.4707748826
 C        -7.2998366166        8.6778742128        1.6418469884
 H        -5.3429325613       12.4448638401       -0.4532772550
 H        -4.2936453032       11.3684259767        0.0240122598
 H        -5.3336000883       12.0600135237        1.2447839197
 H        -4.6247982886        6.1082372047       -0.5201399531
 H        -3.9970929188        7.7262495910       -0.7958739735
 H        -5.9107249396        7.0442547701       -2.8813300583
 H        -4.1843951887        6.5560603735       -3.1145483861
 H        -7.2862405049        9.8024454133       -5.5410050411
 H        -7.1308353691        9.3262050512       -3.9062127646
 H        -7.7561251643        6.8985398502       -4.5682475878
 H        -8.3838821855        7.5719822719       -6.0202544979
 H       -13.2463013762        6.4214092193       -2.7165476785
 H       -13.1886569486        7.5382078394       -1.3153965857
 H       -11.9782838446        5.7332601376       -0.0439179185
 H       -11.6661246088        4.8633706341       -1.5426577959
 H       -13.7071992220        2.1455120623        1.7288411612
 H       -11.9764893955        1.6658798989        2.1421621706
 H       -11.6172784737        0.0086926004        0.6007509089
 H       -13.1277009270        0.0094410723       -0.1142398237
 H       -14.4387012590       -2.5991439460        4.4997585480
 H       -13.1820657001       -1.5235146481        5.2654980682
 H       -13.6517097755       -3.5510461356        6.7665195703
 H       -12.1082406988       -3.6733883390        6.5047044404
 H        -9.3992377491       -6.4562434165        4.7238383748
 H        -9.9861837907       -5.6997839837        6.1705211522
 H       -10.7633936349       -5.2405704216        4.7302999818
 H       -13.1799876243       -7.7593141128        7.5983208653
 H       -14.3067536578       -6.4380049437        7.4604379198
 H       -12.6882978256       -6.0025105025        7.8923963973
 H       -14.8644227031       -7.5680200573        5.0611522395
 H       -13.4093241224       -8.5291692541        5.2057689220
 H       -13.5716416631       -7.7158419171        3.9641674853
 H       -14.3090734970       -4.1392982383        2.3524060625
 H       -14.7491926087       -3.1391658278        0.8940450587
 H       -15.1568334644       -2.6589129053        2.5601715243
 H       -12.4895218389       -2.6328007333        0.0181587626
 H       -11.5963620979       -3.6741703031        1.2332477126
 H       -11.1965901434       -1.9138654891        0.9063026133
 H       -15.3580065727        2.7014844684       -1.4551450377
 H       -15.1791142334        2.1770421386        0.2352537733
 H       -14.6822330687        1.0885980789       -1.2171988935
 H       -13.1285804858        2.7609227000       -2.9236204985
 H       -12.4080708976        1.4151716798       -2.1870419164
 H       -11.7021635230        3.1228099801       -2.1956617964
 H       -11.2123976666        7.2706619398       -5.7690668987
 H       -12.1344416332        8.3418629033       -4.7397320230
 H       -12.5802067801        6.9181547036       -4.7234217494
 H        -9.0705714815        5.5800574377       -4.1936553958
 H       -10.7584390081        5.0527688052       -3.5132988353
 H        -9.5682616128        5.7750391055       -2.5628869491
 H        -4.5689482684       10.8617391033       -5.0449355291
 H        -3.4722660009       10.0649095322       -6.2464736374
 H        -2.9264050695       10.6451299781       -4.5793455868
 H        -2.6710923481        8.2806703186       -5.8104673604
 H        -3.5714741030        6.6387010071       -5.3559668536
 H        -2.4915322721        7.5523938199       -4.1928392858
 H        -4.7803234307        9.0991556075        2.5027532973
 H        -4.0384151537        9.4784023287        1.0085013109
 H        -4.2993351147        7.7763614546        1.4171964047
 H        -7.4728673210        9.6177695726        2.1985846569
 H        -7.0407441518        7.8944043308        2.3995104489
 H        -8.2734686037        8.5278593807        1.1643699487
 Na       -8.8467533588        9.1366278315       -1.2853564803
