117

 C        -5.2390245251       11.4012825852        0.0286256984
 C        -6.3506277506       10.3820054421        0.0788784505
 O        -7.4444384095       10.7065051740       -0.3926976793
 C        -6.1125516399        8.9404660765        0.6924492921
 C        -6.1336419708        7.7944051715       -0.4268634848
 O        -7.1662805318        7.5849695936       -1.0537326186
 C        -4.8057728386        7.2844300110       -0.9717086475
 C        -4.8872073011        7.3237950511       -2.4948105720
 C        -4.6883614869        8.6998964742       -3.1757496450
 O        -4.6137133427        9.6412094175       -2.4971547180
 C        -4.4338378660        8.7551757415       -4.7173026072
 C        -5.7054881124        8.3366297820       -5.4616071145
 O        -5.6088380257        7.6067447600       -6.4113115794
 C        -7.0926867812        8.8648630230       -5.0264150473
 C        -8.2498034504        7.8321597853       -4.7880667148
 C        -9.4718998954        8.2125285753       -3.9766421991
 O        -9.6573688385        9.3649308375       -3.5450123546
 C       -10.6030837314        7.1526638239       -3.6871768106
 C       -11.2383298040        7.3656786011       -2.1422573715
 O       -10.5433349615        7.7109265084       -1.2206836450
 C       -12.5345721703        6.6170221770       -1.7641229136
 C       -12.2274171477        5.3104782869       -0.9113925178
 C       -13.5137238960        4.4593979475       -0.5773683849
 O       -14.6066840122        4.8479984371       -0.1658901846
 C       -13.1700830078        2.8818271626       -0.9096982380
 C       -12.1141806725        2.4314452794        0.2408859375
 O       -11.0111600474        3.0299218997        0.1277031891
 C       -12.5350073809        1.5760936655        1.4460741584
 C       -12.5924344210        0.0946207563        1.0074936637
 C       -13.3788477677       -0.7165661256        2.0021463514
 O       -14.2649102336       -0.2604999930        2.5837890160
 C       -13.0074172499       -2.3174671636        2.1266378323
 C       -12.4319460899       -2.7541978453        3.5078981968
 O       -11.3723340929       -3.2522953641        3.5170794972
 C       -13.4086557411       -2.6853565625        4.7441798402
 C       -13.2908256533       -3.7591217140        5.8808773422
 C       -13.4127348508       -5.1046805038        5.1122170440
 O       -14.0121953419       -5.0648015132        4.0694016464
 C       -12.9918148543       -6.5810627390        5.7929653862
 C       -11.4879750459       -6.8898923758        5.7021794242
 O       -11.1865584161       -8.0357895211        6.0244847243
 C       -10.4104885497       -5.8844395472        5.2155144669
 C       -13.1970491243       -6.5736854568        7.3433655832
 C       -13.9055461034       -7.5674708038        5.1244013113
 C       -14.2955290624       -3.1016715852        1.9405854190
 C       -12.0190632433       -2.7561234024        1.0600391412
 C       -14.5160619218        2.0591423384       -0.7961129180
 C       -12.6426913141        2.5471818138       -2.2861664583
 C       -11.6110786232        7.3424424178       -4.8400291658
 C        -9.9383726992        5.6480651863       -3.7874171640
 C        -3.8062168365       10.0561205887       -5.2876862496
 C        -3.2701688382        7.7081926965       -4.8415916785
 C        -4.7231507317        8.8085492445        1.4900009603
 C        -7.4458987116        8.8269446073        1.6142167688
 H        -4.8986082492       11.9094781346       -0.7687482707
 H        -4.2228250289       11.0782418008        0.4186060342
 H        -5.5351589087       12.1509559055        0.7548685088
 H        -4.8348214406        6.1773715168       -0.8502751259
 H        -3.8103314476        7.5694464793       -0.5457628342
 H        -5.9762405484        6.8494054804       -2.6549221275
 H        -4.1830711555        6.6454920210       -2.9060616532
 H        -7.2809501988        9.4993664247       -6.0396287704
 H        -7.0923538725        9.5792885445       -4.1860792496
 H        -7.8790794424        6.8321184158       -4.4440783518
 H        -8.5787838245        7.5982325951       -5.7768121530
 H       -12.9737722523        6.3747175582       -2.6909282158
 H       -13.2749224139        7.1715747217       -1.1706549239
 H       -11.8229476330        5.7930324081        0.1097342725
 H       -11.5074768674        4.5708627656       -1.2430129776
 H       -13.5342956983        1.9915003810        1.7838375111
 H       -11.8220672544        1.7382601057        2.2344785672
 H       -11.6086473487       -0.0940571645        0.4596758851
 H       -13.1979833946        0.1700602648        0.1140218295
 H       -14.4434341761       -2.6764722999        4.3147532059
 H       -13.3487578568       -1.7164744117        5.1782684839
 H       -13.9276431376       -3.4722958845        6.7354205687
 H       -12.3371141854       -3.7616585679        6.5069008902
 H        -9.5103885724       -6.4064278857        4.8889882286
 H       -10.1100403259       -5.2963153766        6.0525960017
 H       -10.8723417613       -5.0697829576        4.4775371249
 H       -13.2776079334       -7.5887770186        7.8322032191
 H       -14.0712308937       -6.0089114387        7.6597474318
 H       -12.3634802942       -5.8996343940        7.8095837634
 H       -14.8070775051       -7.7851008506        5.6389374558
 H       -13.3621270391       -8.5014535316        4.7746577315
 H       -14.2544113670       -7.2942000306        4.1417796924
 H       -14.1763749151       -4.1742325695        2.1346856847
 H       -14.6090560529       -2.9095174403        0.9836123875
 H       -15.0092938228       -2.7419571638        2.6747925669
 H       -12.2667353101       -2.1809241215        0.0892170863
 H       -12.1070020012       -3.9034782546        0.9122544318
 H       -10.9856460914       -2.5085256136        1.2717002132
 H       -15.1470978791        2.4973429116       -1.5744133488
 H       -14.9585995028        2.4089322912        0.1242548958
 H       -14.6180641624        0.9921078293       -0.8660541010
 H       -13.2378700319        2.9505421375       -3.1143688245
 H       -12.7905177642        1.4489988439       -2.4201344830
 H       -11.6467473667        2.9308041047       -2.4353616995
 H       -11.1173410267        7.1552001128       -5.7896108488
 H       -12.0040264669        8.3382365059       -4.8731203415
 H       -12.6333620943        6.9733381879       -4.7407033458
 H        -9.3527600306        5.5327980465       -4.7246789528
 H       -10.8135870652        5.0128305340       -3.6360742181
 H        -9.2883693327        5.4247560100       -2.9402926370
 H        -4.5660816262       10.9174923062       -5.4474929613
 H        -3.1948833642        9.9175560928       -6.1850899163
 H        -3.1937223497       10.5844722094       -4.5958882370
 H        -2.6950539364        8.0098930600       -5.7903747642
 H        -3.7109252698        6.7509446308       -4.7887769541
 H        -2.6268304898        7.7982518982       -3.9528930869
 H        -4.6606462952        9.6614809441        2.1841276052
 H        -3.9217876732        9.0490693296        0.7634883550
 H        -4.4828611173        7.9114604628        1.9191229212
 H        -7.7400020652        9.7325529961        2.0381537714
 H        -7.1988816103        8.0592589336        2.4589592642
 H        -8.3080704474        8.5231528312        1.0726265266
 Na       -8.7261285235        9.3334247473       -1.3008623253
