117

 C        -5.1484694830       11.3046721588       -0.1258798592
 C        -6.2478057320       10.3310392602       -0.0439990720
 O        -7.3978796052       10.7458076503       -0.4384233374
 C        -6.1190700680        8.9925454106        0.6289225698
 C        -6.1438369206        7.9139343445       -0.5199384856
 O        -7.2533032773        7.4717738843       -0.8357489379
 C        -4.9197385198        7.3778379024       -1.0867465095
 C        -4.8667180415        7.2387788798       -2.6037302418
 C        -4.5778918136        8.7433845829       -3.2082593412
 O        -4.5764292914        9.7211789388       -2.4697814913
 C        -4.3796090597        8.6524753297       -4.6801571455
 C        -5.7444051572        8.2433214035       -5.5944165501
 O        -5.6764503312        7.4511803087       -6.4610183396
 C        -7.1781424911        8.8918845859       -5.0785205920
 C        -8.1847417036        7.7882145083       -4.6860271805
 C        -9.3588498475        8.2233511871       -3.8358451002
 O        -9.5547190467        9.4186955080       -3.4784182077
 C       -10.4891292077        7.1376929629       -3.5878121680
 C       -10.9686885274        7.1227124534       -2.1462161760
 O       -10.5107040148        7.8797365479       -1.3129793108
 C       -12.4363263722        6.4474797472       -1.8194071882
 C       -12.1742542294        5.3100614035       -0.8150136538
 C       -13.3448298054        4.3406752577       -0.6215387903
 O       -14.3639261029        4.6874308665       -0.0703045122
 C       -13.1769775535        2.8399769606       -0.9399078630
 C       -12.1175276199        2.4945009026        0.2222261847
 O       -11.0173254216        2.9516890163        0.1554935017
 C       -12.3643921743        1.5541402236        1.3741231135
 C       -12.4136791289        0.0196456902        1.1248036993
 C       -13.3445435907       -0.7496850651        1.9964769375
 O       -14.4054885440       -0.3589351893        2.5002684500
 C       -13.0250108469       -2.3045265065        2.0998743111
 C       -12.4685006742       -2.7893397842        3.5767168891
 O       -11.3105796439       -3.1579172984        3.6864147017
 C       -13.3745276944       -2.5923268518        4.7485204436
 C       -13.2217018441       -3.7657462199        5.6793614410
 C       -13.5752887527       -5.0994389341        5.0762720216
 O       -14.1104984749       -5.1947612505        3.9612054163
 C       -13.1705363223       -6.3802102857        5.8210551518
 C       -11.6224443883       -6.8387168333        5.7620166665
 O       -11.2387239129       -7.8125399616        6.2737565518
 C       -10.6037962607       -5.7593564493        5.2054912905
 C       -13.2815673827       -6.3191100681        7.3778527464
 C       -13.9950062346       -7.5720917912        5.3301636403
 C       -14.3869187059       -3.0239621417        1.7839599253
 C       -11.9818101053       -2.8589123956        1.0223294568
 C       -14.5449594848        2.0713177423       -0.7475371438
 C       -12.6815270722        2.6794862660       -2.3937227221
 C       -11.5758781170        7.3515723394       -4.6794259690
 C       -10.1345346292        5.6591529772       -3.9027584177
 C        -4.0394592418       10.1333451506       -5.2203881504
 C        -3.2233547256        7.5482908165       -4.9187236061
 C        -4.9620693407        8.9202491968        1.5905913907
 C        -7.3387525436        8.7949577264        1.6249856361
 H        -4.6807002551       11.4024986782       -1.1015169475
 H        -4.2269260825       11.0701198698        0.3932111536
 H        -5.3763824303       12.2950791107        0.1656707087
 H        -4.8105388623        6.4439820613       -0.5941818207
 H        -4.0022199185        7.9251542579       -0.7867872481
 H        -5.7750772048        6.7080874019       -3.0341748262
 H        -3.9929248647        6.6748797087       -2.8050303104
 H        -7.5325292734        9.7499028033       -5.7737844557
 H        -6.9425154604        9.3325474383       -4.0525135424
 H        -7.6364554079        7.0546285759       -4.1155641728
 H        -8.5101268666        7.2295858730       -5.5633468411
 H       -12.8848708874        6.0733596952       -2.7454716092
 H       -13.1632919546        7.1736094058       -1.4174783141
 H       -11.9333548580        5.8150458147        0.1193370088
 H       -11.2981036103        4.6367451817       -1.0409511922
 H       -13.1788415214        1.8277143942        1.9083170246
 H       -11.4819055909        1.8116046634        1.9896134119
 H       -11.4159390414       -0.3280680558        1.1823591591
 H       -12.5661115797       -0.1230310028        0.0096674718
 H       -14.3160129539       -2.3603995056        4.3878091576
 H       -13.0865590832       -1.7484070234        5.3103195732
 H       -13.9545166204       -3.5186809982        6.5583405818
 H       -12.3599793112       -3.7502655491        6.2823372921
 H        -9.6032864348       -6.2863109552        5.0894396458
 H       -10.4216508372       -4.9462506799        6.0102386319
 H       -10.9495102476       -5.1593954738        4.3523449071
 H       -13.1740044764       -7.3423444358        7.6696337660
 H       -14.1729227343       -5.8889808553        7.9153739304
 H       -12.4425865516       -5.7046515082        7.8303101576
 H       -14.6351077337       -8.0415540377        6.0328740122
 H       -13.2976862016       -8.3207990065        4.8022846721
 H       -14.6999431320       -7.4502892160        4.4109581477
 H       -14.2464871074       -4.0493794700        1.8513409663
 H       -14.6313908853       -2.7530958820        0.6947332944
 H       -15.1949659724       -2.7886653416        2.4503517814
 H       -11.8204881665       -2.2642715594        0.0533851920
 H       -12.2487125436       -3.8560354817        0.8612568038
 H       -10.9451134401       -2.8592432571        1.4961515117
 H       -15.1990894081        2.3764291089       -1.5410002808
 H       -15.0304004954        2.2789723757        0.2037051915
 H       -14.3988881308        1.0173888055       -0.6807566460
 H       -13.2054499515        3.3479578794       -3.1621043691
 H       -12.8647582791        1.6915566120       -2.7867201493
 H       -11.5989353653        3.0268563322       -2.3707381039
 H       -11.1109581001        7.0809471910       -5.6781959772
 H       -12.0987394085        8.2562115789       -4.7956447526
 H       -12.5112100511        6.7942198457       -4.4776473708
 H       -10.0172687616        5.6751342521       -4.9734241898
 H       -10.9221990412        5.0425532921       -3.4757442046
 H        -9.1632579625        5.3022529724       -3.4745714261
 H        -4.8862122073       10.7943962014       -5.1818275699
 H        -3.5550641422       10.1816926086       -6.1544835036
 H        -3.4095238309       10.6311277648       -4.5810495285
 H        -2.9680815037        7.4847866254       -5.9221124386
 H        -3.7993462394        6.6635259089       -4.6379509031
 H        -2.3896565289        7.6423721787       -4.2385995359
 H        -4.8737300270        9.9165673985        2.0315497080
 H        -4.0415060759        8.6251373041        1.1433619729
 H        -5.1390634451        8.1605623566        2.3617398404
 H        -7.6926645213        9.6939184114        2.1351017480
 H        -7.1405882940        8.0670131699        2.2946178349
 H        -8.1777964600        8.5075114908        0.9948863632
 Na       -8.7667996835        9.3750004016       -1.3949577211
