117

 C        -4.9810217785       11.5314358127       -0.0793468168
 C        -6.0919180041       10.5894523203       -0.3619060831
 O        -6.9843674819       10.9784251624       -1.1333855427
 C        -6.0932133332        9.2364058578        0.3868885280
 C        -6.0102185362        8.2599998288       -0.7934990086
 O        -7.0033621219        7.9124428571       -1.4778068849
 C        -4.8113602249        7.4026719106       -1.0739185578
 C        -4.4875250857        7.1638691014       -2.5138904545
 C        -4.3501448371        8.5823180125       -3.2437725304
 O        -4.1071062454        9.6446338528       -2.7737714836
 C        -4.3611499087        8.5070616105       -4.8189570661
 C        -5.8056949005        7.6766826508       -5.3480175621
 O        -5.8468357172        6.7235950533       -6.0619550849
 C        -7.1289801436        8.2648146837       -4.8133049832
 C        -8.2257652490        7.2093162909       -4.4855424858
 C        -9.4780919531        7.8885179884       -3.8857613767
 O        -9.3264865855        8.9741697162       -3.3645702869
 C       -10.8606564277        7.2106798667       -3.8153435857
 C       -11.2094373114        7.0771627202       -2.3289173696
 O       -10.5549775033        7.7244956522       -1.4532347478
 C       -12.1640837351        6.1132857634       -1.7246557159
 C       -11.6405571309        5.2720028316       -0.5121292678
 C       -12.6815002800        4.1909546475        0.0536887515
 O       -13.5828939231        4.6944580237        0.7276295958
 C       -12.6220681571        2.7631249841       -0.6708347883
 C       -11.5577193763        1.7670798106        0.1105708401
 O       -10.5197341557        1.3564544373       -0.4425895732
 C       -11.8794459616        1.2723591591        1.5845688977
 C       -11.7593058283       -0.2403705421        1.6363948106
 C       -13.1263873365       -0.9270738244        1.4591764369
 O       -14.1800390938       -0.4316546177        1.5560394438
 C       -12.9910211095       -2.5611875289        1.6974040275
 C       -12.9819142407       -2.6205000779        3.3364399144
 O       -11.9174475688       -2.6157651621        3.8205009579
 C       -14.2162348947       -2.5628147659        4.1869168940
 C       -14.0432875250       -3.2177581325        5.5237278119
 C       -14.0380382191       -4.7394506792        5.1802468808
 O       -14.2354410002       -5.2155195738        4.1105335696
 C       -13.7599059230       -5.8673757521        6.4358252464
 C       -12.1758006553       -6.0884909574        6.4848396446
 O       -11.6463215670       -6.4690273251        7.4753149724
 C       -11.3622553103       -5.8329212373        5.1664731942
 C       -13.9924099818       -5.2795454145        7.8242151413
 C       -14.6220249829       -7.1357506101        6.3125305612
 C       -14.1274997178       -3.3861633580        0.9439491734
 C       -11.5727413292       -3.0629797950        1.1660374904
 C       -14.0153725605        1.9983908644       -0.4936516060
 C       -12.2107456506        2.7611219156       -2.1663304260
 C       -11.9040121480        8.0496165709       -4.5863253662
 C       -10.7290787392        5.6784784867       -4.3747308969
 C        -4.4061941399        9.8758404675       -5.6243771070
 C        -3.1849098300        7.6037691134       -5.1939689093
 C        -4.9070154232        8.8997148711        1.5018134176
 C        -7.4827355977        8.9727355640        1.0192844216
 H        -4.2503217198       11.0938329437        0.5162346096
 H        -5.2486753378       12.5239442261        0.4114595096
 H        -4.2772096517       11.8481067055       -0.8631150284
 H        -5.0349352637        6.4273104106       -0.6172265137
 H        -3.9652846516        7.7014268797       -0.5422784491
 H        -5.3505889968        6.6115216170       -3.0416936655
 H        -3.6970148229        6.5359985702       -2.6206400135
 H        -7.5794157278        8.8198474824       -5.6007477085
 H        -7.0184705374        8.8928404669       -4.0549346185
 H        -7.7893578181        6.5084660680       -3.7645789876
 H        -8.5217207334        6.6763573861       -5.3776391988
 H       -12.6151049268        5.5096540644       -2.5245648566
 H       -13.0633418802        6.6734900545       -1.3180238392
 H       -11.4759254375        6.0115347851        0.2857165453
 H       -10.7697093074        4.8239816429       -0.7466370593
 H       -12.9150261323        1.6004292915        1.9497635748
 H       -11.2247093477        1.7282986476        2.2803701418
 H       -11.3213828683       -0.6304272410        2.6310957686
 H       -11.0102113537       -0.4804625554        0.9800843113
 H       -15.0194773890       -3.1196055207        3.5860153784
 H       -14.5834118336       -1.5144640421        4.1685124757
 H       -14.8897509866       -3.0192815516        6.1017049267
 H       -13.0622798593       -3.1492481569        6.0243545569
 H       -10.3056686198       -6.0013030064        5.3188001998
 H       -11.6046260410       -4.8918087226        4.7625037737
 H       -11.7463068599       -6.4874211416        4.2760133326
 H       -13.4814228356       -5.8366789394        8.5839636186
 H       -14.9561385789       -5.1975986004        8.1465286126
 H       -13.5582779857       -4.2637672161        7.9166916194
 H       -14.3111283182       -7.9703903059        5.8302660645
 H       -15.4540232000       -6.9086140079        5.5375987951
 H       -15.1413185859       -7.3210897589        7.2568204024
 H       -14.2314249345       -4.3897511341        1.4258460175
 H       -13.9322170310       -3.6220323924       -0.0672354240
 H       -15.1148257801       -2.8213079253        0.9082158495
 H       -11.6247127191       -2.7880644418        0.1212644099
 H       -11.5012732928       -4.1240707302        1.3112941371
 H       -10.7930568866       -2.6451022413        1.7191016095
 H       -14.7527254123        2.4907291829       -1.1545250721
 H       -14.3596418266        2.0524147098        0.5497472522
 H       -13.9454427218        0.9454907639       -0.6758298652
 H       -12.9711920197        3.3996910487       -2.6034520909
 H       -12.1757217871        1.6959432081       -2.5527539278
 H       -11.1745662217        2.9852249014       -2.3823662388
 H       -12.2898815882        7.8030722669       -5.5706680709
 H       -11.5053379186        9.0505559118       -4.6792921885
 H       -12.9210519592        8.1009359472       -4.1145546301
 H       -10.4436051222        5.5464256216       -5.4463412367
 H       -11.7465336068        5.2836812745       -4.3610315305
 H       -10.0583285112        5.1409035163       -3.7226547128
 H        -5.4602008156       10.2497188989       -5.6836676464
 H        -4.2795855241        9.5283334675       -6.6654992598
 H        -3.7037949923       10.5962390276       -5.4300308506
 H        -3.1949749167        7.3190801987       -6.2951727465
 H        -3.2054413674        6.6896326509       -4.7218495188
 H        -2.2986497956        8.1525582934       -4.8417546389
 H        -4.6650321748        9.8277977216        2.1019258553
 H        -4.0335140622        8.5030418508        0.9382439062
 H        -5.4206025827        8.2287638195        2.1368636540
 H        -7.8125013130        8.0116037591        0.7240554994
 H        -8.2152302337        9.7960779750        0.8050580837
 H        -7.3878238562        9.0489015305        2.0994077858
 Na       -8.9305057581        9.5677942621       -1.1700751098
