117

 C        -4.9839448408       11.6081084090       -0.3146921528
 C        -6.1397867568       10.7774519718       -0.3496756210
 O        -7.2151254248       10.9348006413       -0.9553483822
 C        -6.0269036135        9.2880397170        0.3355442217
 C        -5.9088175686        8.2741798154       -0.8727130490
 O        -6.8004669600        8.1617895947       -1.7283359984
 C        -4.6117074909        7.5044970637       -1.0996709452
 C        -4.2836577321        7.2396252018       -2.4954175429
 C        -4.2273212643        8.4577195774       -3.3947818942
 O        -4.3241781483        9.5561123793       -2.9192941804
 C        -4.3359549494        8.2296266381       -4.9959446383
 C        -5.7212538706        7.5163377295       -5.1422467943
 O        -5.5970681796        6.3707476338       -5.4098531816
 C        -7.0879249349        8.2759861875       -4.7816750838
 C        -8.2916665720        7.2651457957       -4.8253571627
 C        -9.5877547017        7.9483990643       -4.1032147738
 O        -9.5212285291        9.1402752567       -3.8335190042
 C       -10.9188554891        7.2175937884       -3.6781488674
 C       -11.1517929921        7.1025854116       -2.1438247581
 O       -10.5063855344        7.8786394276       -1.3992449164
 C       -12.1684224928        6.2216516633       -1.4400298204
 C       -11.5037663120        5.0080916667       -0.6530942682
 C       -12.3799130776        3.9103597227       -0.0710181405
 O       -12.6691503467        3.9987922231        1.1023047622
 C       -12.6516197254        2.5650189705       -0.7636907370
 C       -11.6024955016        1.6809512300        0.0756373446
 O       -10.5498883997        1.2192633131       -0.4508034844
 C       -11.6502141522        1.3199471303        1.4981022636
 C       -11.6271058331       -0.1796311650        1.9423164371
 C       -12.8101695346       -1.0462576377        1.4592915394
 O       -13.7562211847       -0.6710367996        0.8167063767
 C       -12.8627296895       -2.5593030230        1.7900899798
 C       -13.0984082984       -2.7459091625        3.3984463393
 O       -12.2086717972       -2.9479090302        4.1282484090
 C       -14.5478197030       -2.6403704013        3.8355084132
 C       -14.7757659834       -3.1937788400        5.2621120755
 C       -14.3435677520       -4.6485422644        5.2862894224
 O       -14.4283182169       -5.2782822760        4.2940098227
 C       -13.9023861070       -5.3099916438        6.5814563662
 C       -12.4089379935       -5.6848089482        6.7897176092
 O       -11.8592313667       -5.6953740074        7.8718774074
 C       -11.8373318961       -6.2001625553        5.4341253567
 C       -14.3578128855       -4.5882337066        7.8165271571
 C       -14.4665470985       -6.8531955460        6.6560530345
 C       -14.0840659608       -3.1363504679        0.9467320720
 C       -11.5187751915       -3.1477549717        1.3138355037
 C       -14.1769698718        2.1428162908       -0.5888556112
 C       -12.2178988254        2.4672068877       -2.1988221312
 C       -12.1131740918        8.2070833078       -4.0012874069
 C       -11.0741549468        5.8950642320       -4.3114513428
 C        -4.3143659031        9.6996227546       -5.5882103469
 C        -2.9907702746        7.2908815686       -5.5082207778
 C        -4.8272696934        9.0737976140        1.4124010804
 C        -7.2791312727        9.0128938025        1.1259366356
 H        -4.6157531330       12.0165331331        0.5233347407
 H        -4.9577670089       12.4237798034       -1.0535019253
 H        -4.1594215419       10.9718336465       -0.5605065891
 H        -4.9672043961        6.4949421214       -0.6685387137
 H        -3.8147583290        7.8035407122       -0.5118797182
 H        -4.9825513898        6.5574847523       -2.9373971650
 H        -3.3424736898        6.7039105398       -2.5591932896
 H        -7.4033361906        9.0633781751       -5.5760117139
 H        -7.0986875282        8.8630365193       -3.9205169625
 H        -7.9825210397        6.4906042683       -4.1419993426
 H        -8.5536255451        6.8346280914       -5.8590910501
 H       -12.8472128969        5.8359224951       -2.2243761561
 H       -12.7743378583        6.8069908860       -0.7229856340
 H       -10.9529105707        5.4752887938        0.2272974856
 H       -10.7516016192        4.6015876983       -1.2682406129
 H       -12.4096657530        1.9323786839        2.0906401182
 H       -10.7848335701        1.7298952510        1.8684691967
 H       -11.7360145136       -0.2216876246        3.0519165006
 H       -10.6141199572       -0.4887656079        1.6789484912
 H       -15.1923658105       -3.0110825615        3.0637898804
 H       -14.8091090384       -1.6756018726        3.9458592551
 H       -15.8097011028       -3.3173797992        5.4252806602
 H       -14.1832987388       -2.6270839683        6.0064038535
 H       -10.9279332022       -6.7604315256        5.6748617512
 H       -11.7218580003       -5.5282043185        4.6007321699
 H       -12.5074515304       -7.1198841317        5.0941075418
 H       -14.3978361367       -5.2031562296        8.7877729819
 H       -15.3579153836       -4.1886312268        7.8031469913
 H       -13.6331931753       -3.7262807458        7.9713180638
 H       -14.8173172187       -7.1197402819        5.6821148308
 H       -15.4198341801       -6.9987937653        7.3672691824
 H       -13.6756018252       -7.4590157601        7.1532727254
 H       -14.2489790208       -4.2472805354        0.9870724114
 H       -13.9664178722       -2.9337577505       -0.0400776701
 H       -15.0354305460       -2.6742231040        1.1969481650
 H       -11.4511982018       -2.8369998229        0.2243569579
 H       -11.6647619056       -4.2928833791        1.3261719560
 H       -10.7317675387       -2.9250502661        2.0398888353
 H       -14.9652724879        2.6264194579       -1.1648071709
 H       -14.3300098101        2.2643468965        0.4601712824
 H       -14.2425416679        1.0820784601       -0.7159285935
 H       -12.7395334034        3.0708302082       -2.9515819261
 H       -12.3194130308        1.3684736995       -2.4721053938
 H       -11.1504702696        2.5210453196       -2.3162102586
 H       -12.1868888368        8.5958838649       -4.9944741274
 H       -11.9154595273        9.1731803045       -3.5301956540
 H       -13.0357798465        7.6655269225       -3.8459356933
 H       -10.9122441098        6.0936373452       -5.3773935658
 H       -12.0622867611        5.4377600938       -4.3035530584
 H       -10.2487062455        5.2954978959       -4.0154956647
 H        -5.2982297870       10.1247050070       -5.2657765296
 H        -4.3355986874        9.8083624275       -6.6629893082
 H        -3.5705807809       10.2445149874       -5.1642772681
 H        -2.8107450681        7.2400008610       -6.6588560701
 H        -3.2494977334        6.3469108461       -5.1669133317
 H        -2.0745198196        7.6187542400       -4.9860660776
 H        -5.0747780266        9.4333158716        2.3786801149
 H        -4.1067379500        9.7508652035        1.0002370466
 H        -4.5727107301        8.0884555385        1.3904202513
 H        -8.1406143952        9.3845121485        0.6536325123
 H        -7.1240419705        9.2486200566        2.2194184391
 H        -7.4135781916        7.9849036567        1.1521652366
 Na       -8.7536570838        9.3769683981       -1.9117465237
