117

 C        -5.0638657842       11.7587157788       -0.5810418007
 C        -6.2184569709       10.7079488519       -0.2596790651
 O        -7.2735284326       10.9488142539       -0.7656287992
 C        -5.9680125076        9.2962419282        0.3815604555
 C        -5.7776601427        8.2997795319       -0.8225227714
 O        -6.6199485300        7.9668196893       -1.6281865809
 C        -4.3602544150        7.6717573896       -0.9171112379
 C        -4.0838327736        7.0715728730       -2.3804954272
 C        -4.3037288876        8.2048247254       -3.4970403100
 O        -4.6297724701        9.2159806379       -2.8711961342
 C        -4.5177668198        8.1188334903       -5.1220691792
 C        -5.8444704582        7.2585412295       -5.0391778951
 O        -5.8891017739        6.0035454661       -5.0497778128
 C        -7.1534871622        8.1733832837       -5.0780252040
 C        -8.4117218459        7.3436259937       -4.8744162895
 C        -9.5817920846        8.1435499718       -4.3464573136
 O        -9.6905127185        9.3373430976       -4.2831463250
 C       -10.8622756769        7.3449524282       -3.5990319311
 C       -10.8297884204        7.2008718282       -2.0489164649
 O       -10.2862478440        7.9350028280       -1.2800212289
 C       -11.7414627959        6.0059445916       -1.4316443457
 C       -11.0085854676        4.7171765116       -0.8154301922
 C       -11.9364404261        3.8117031893       -0.0896806163
 O       -12.2536051984        3.9956036182        1.0784584389
 C       -12.5549368574        2.5486851770       -0.7487331356
 C       -11.6010681066        1.4564149537       -0.0002819404
 O       -10.6144600462        1.0247547485       -0.4788398433
 C       -11.9126696673        1.2619228436        1.5075847542
 C       -11.6301931942       -0.1402091566        2.0598414889
 C       -12.5378244060       -1.0773950794        1.3512432360
 O       -13.2563027902       -0.5294611923        0.4990905366
 C       -12.8554061264       -2.5595333642        1.7496712764
 C       -13.1633535905       -2.7224424813        3.2625349209
 O       -12.3071455694       -3.0769964243        4.1150831903
 C       -14.6813842584       -2.6553154067        3.8142178318
 C       -15.1102143204       -3.2544080285        5.1674108986
 C       -14.6534894206       -4.7184873038        5.4208825386
 O       -14.3736502491       -5.4168859005        4.4104905500
 C       -14.2695680226       -5.2133903713        6.7821634327
 C       -12.5990912450       -5.3201164215        6.7984709179
 O       -11.9406688333       -4.9237598870        7.7161589415
 C       -11.8985894123       -6.2786092967        5.8101746131
 C       -14.6014587810       -4.2849637620        7.9279403897
 C       -14.9542237530       -6.5599575975        7.0916502115
 C       -13.9935070048       -3.1952931659        0.8882481539
 C       -11.5045962441       -3.4452019169        1.5690456573
 C       -14.0119377138        2.3094662994       -0.5427571325
 C       -12.3173778766        2.4498572787       -2.2742955482
 C       -12.1009961614        8.1867035365       -3.9722258083
 C       -11.0250998269        6.0015533964       -4.3144981375
 C        -4.4761623190        9.5529669052       -5.7156646087
 C        -3.3122975254        7.3467219591       -5.7853215153
 C        -4.7328038423        9.4642106595        1.4402821082
 C        -7.2865641912        8.9157495384        1.0574395499
 H        -5.2764354937       12.7928230330       -0.1197513098
 H        -4.9695595178       12.0428166920       -1.6010559553
 H        -4.0110382981       11.7206187791       -0.2516732057
 H        -4.2789540737        6.9349819982       -0.1823595348
 H        -3.6373169348        8.5096004801       -0.6178886903
 H        -4.9040778230        6.3857467341       -2.5809964059
 H        -3.1305943854        6.3994785937       -2.4531105917
 H        -7.2514933285        8.6808617404       -6.0072638416
 H        -7.1592995509        9.0348279781       -4.3570186510
 H        -8.1162160608        6.6067769223       -4.1015947343
 H        -8.7248666238        6.8294928899       -5.7274797498
 H       -12.6008122330        5.6253167942       -2.0050415596
 H       -12.0965928579        6.6494622013       -0.6147047284
 H       -10.3193477708        5.0394599560       -0.1245040519
 H       -10.3666051816        4.3130123061       -1.6547846082
 H       -12.8730524612        1.3771152232        1.8604223186
 H       -11.4244182722        2.1496281446        2.0913891139
 H       -12.0664925312       -0.0274387873        3.0270443271
 H       -10.5833208890       -0.5620836833        2.0788291228
 H       -15.2784401357       -2.9708860870        2.9475882902
 H       -14.9172317634       -1.4906613547        3.8684994983
 H       -16.2122298879       -3.4968385764        5.2236554560
 H       -14.6297142520       -2.7554719448        5.9538013549
 H       -11.0086592578       -6.7164786221        6.2622562121
 H       -11.4936822788       -5.5762643038        5.0072720445
 H       -12.4094717637       -7.0695720104        5.3756435588
 H       -14.2332778379       -4.7379039572        8.8199023834
 H       -15.6780211799       -4.0908084793        8.1378788690
 H       -14.0908265406       -3.4080722088        7.8570152587
 H       -15.3933976925       -6.9600676693        6.0834932807
 H       -15.7510376165       -6.4689131014        7.7189967199
 H       -14.2351500523       -7.2623728694        7.5518028364
 H       -14.4169513520       -4.1022249416        1.2851045815
 H       -13.4979737789       -3.4941137191       -0.1227403116
 H       -14.8727743629       -2.5954894564        0.6692788521
 H       -11.4693255969       -3.5204703865        0.5610901237
 H       -11.5836598332       -4.4566444072        1.9437652220
 H       -10.6951560790       -2.9288177244        2.0402439492
 H       -14.6162555693        2.8713430993       -1.2302845111
 H       -14.3407809551        2.6133394714        0.4294063556
 H       -14.2473889045        1.2825597700       -0.9108642885
 H       -12.7261601233        3.3430822204       -2.8738067626
 H       -12.7610527915        1.5780836415       -2.7477623615
 H       -11.1760137917        2.4215383726       -2.4133408959
 H       -11.7926340862        8.8735618496       -4.8250043289
 H       -12.5367920068        8.9630320077       -3.2994149338
 H       -12.7920210767        7.4889500821       -4.4380025586
 H       -11.0828628545        6.1545353144       -5.3931833117
 H       -12.0413223283        5.6603380479       -4.0437230615
 H       -10.2489082740        5.2179495959       -4.0714175198
 H        -5.0021817173       10.2052637112       -5.0500625461
 H        -4.8852705890        9.5844500418       -6.7114703852
 H        -3.3754311328        9.8903583117       -5.6041650041
 H        -3.3648919851        7.4012584764       -6.8071514966
 H        -3.0714741728        6.3400852615       -5.3562817908
 H        -2.4501741819        7.9891467675       -5.6267552668
 H        -4.8892975512       10.4952895539        1.6885755365
 H        -3.7039088486        9.2996709756        1.1423114848
 H        -5.1704921608        8.8476887945        2.2908325511
 H        -7.9798528463        9.7333557169        0.8024113902
 H        -7.2510065215        8.7534367431        2.1048650072
 H        -7.8382779051        8.0892089729        0.5876486750
 Na       -8.5368565633        9.3770625256       -1.9744025127
