117

 C        -4.9721215041       11.7332961760       -0.8317197670
 C        -6.0902603844       10.8054760113       -0.4511357556
 O        -7.1756726517       10.8358506609       -1.0205400413
 C        -5.7716337301        9.5188557597        0.4193177112
 C        -5.3629968520        8.5348950429       -0.7425857683
 O        -6.2646374688        7.9591693741       -1.2812367046
 C        -3.9463096589        8.2330221753       -1.1504960626
 C        -3.8496827668        7.6390282002       -2.5992926414
 C        -4.5338741533        8.4408626348       -3.6587518945
 O        -4.9882223638        9.5051615757       -3.3174785643
 C        -4.8384667923        7.6090956045       -4.9853058478
 C        -6.2517102574        7.0482531796       -4.8342830381
 O        -6.3642664528        6.1761590394       -3.9241409517
 C        -7.4279733443        7.8354466503       -5.5005385271
 C        -8.8446740954        7.2983696675       -5.3695469315
 C        -9.7201075881        7.9311128191       -4.3565845974
 O        -9.4315042258        9.0610409860       -4.0388350280
 C       -11.1087965426        7.3023092632       -3.8343114301
 C       -10.6236130065        6.7346278914       -2.3203951042
 O        -9.5245713684        7.0909915021       -1.9237789435
 C       -11.4675281716        5.8344413230       -1.4213959062
 C       -10.5873122203        4.5819873590       -1.1360458360
 C       -11.1911738445        3.6654930093       -0.0822767264
 O       -10.8042181536        3.8599886918        1.0248930016
 C       -12.0708004046        2.4472633881       -0.5116856228
 C       -11.3246585068        1.1888007253        0.2255384631
 O       -10.4086655514        0.6248424021       -0.2209937698
 C       -11.8813228189        0.8301116161        1.6631628742
 C       -11.6292560617       -0.6516764802        1.8400167271
 C       -12.5824215499       -1.5265433715        1.1406178565
 O       -13.4423440741       -1.2096733144        0.3250174523
 C       -12.6454411959       -3.0002058188        1.6136531077
 C       -13.3531902247       -2.7674151055        3.0088918404
 O       -12.7013272849       -2.3106104624        3.9183505904
 C       -14.8142548401       -2.9779822845        3.3444610159
 C       -15.1347480510       -3.1137330410        4.8604824703
 C       -15.1171447260       -4.4818087312        5.4746379614
 O       -15.2648694664       -5.5421632588        4.9006963638
 C       -14.7927909867       -4.4604130024        6.9993622082
 C       -13.2262007625       -4.4139688238        7.2089273396
 O       -12.7144410940       -3.3212046538        7.3586529584
 C       -12.4288441972       -5.7110037843        7.2568574643
 C       -15.2711162059       -3.2612249634        7.9106608472
 C       -15.4345292980       -5.7003519952        7.5202170630
 C       -13.5350216441       -3.8620192776        0.6029077991
 C       -11.2963604541       -3.7782365230        1.6980313900
 C       -13.5034389512        2.7089271903       -0.0307511834
 C       -12.2245330705        2.1726231087       -2.0529311473
 C       -12.2055401293        8.3872033322       -3.5764646307
 C       -11.7403210835        6.0339653959       -4.4660098519
 C        -4.5986934877        8.7055323679       -6.1424453354
 C        -3.7205136563        6.5619687987       -5.3053182049
 C        -4.6016071599        9.7150389531        1.3953463130
 C        -6.9070540902        9.2705467384        1.2554288872
 H        -4.6239897349       11.5837299827       -1.9177296394
 H        -4.0786987943       11.5466282015       -0.2375203493
 H        -4.9936996318       12.8320395387       -0.7568078580
 H        -3.7076463421        7.3728076178       -0.4518216089
 H        -3.1968126398        9.0722424319       -1.0543406566
 H        -4.4638461708        6.6417474779       -2.5955878012
 H        -2.8771362343        7.3849360234       -2.7875540409
 H        -7.1557786093        7.9747142544       -6.5623986684
 H        -7.4021278445        8.9737808006       -5.0765789075
 H        -8.8397883958        6.2377621485       -5.3691419054
 H        -9.3115540820        7.5278313093       -6.3712633375
 H       -12.3502109350        5.5148542353       -1.9600063328
 H       -11.8039244427        6.3544521126       -0.5201931583
 H        -9.5167585831        4.9365478590       -0.9104269153
 H       -10.4841067298        4.0040827346       -2.1015059208
 H       -13.0062574796        0.9401158039        1.7428974679
 H       -11.3679317872        1.4351225403        2.4219933385
 H       -11.7355573044       -1.1000357757        2.9105385182
 H       -10.6981120023       -0.9308583615        1.3391693953
 H       -15.0306822791       -3.9750277834        2.7816772975
 H       -15.5061928948       -2.2453648721        2.9261331653
 H       -16.1631410991       -2.7246725499        5.0146296068
 H       -14.3335299330       -2.5043306966        5.5003311041
 H       -11.4919459369       -5.5875856223        7.7927555896
 H       -12.1126588506       -6.1410515129        6.3206286033
 H       -12.9231425725       -6.3791508888        7.8075621735
 H       -14.8514483910       -3.4134024730        8.8296983149
 H       -16.3660380440       -3.1081234297        7.8813787340
 H       -14.8473204720       -2.3326857700        7.5126537161
 H       -14.7771774800       -6.0369335511        8.3601807601
 H       -15.7228831933       -6.2814837741        6.7229421058
 H       -16.3144338888       -5.4381435926        8.0147009825
 H       -13.9280928686       -4.7468499532        1.0071495482
 H       -12.9646836754       -4.1968823451       -0.2999694265
 H       -14.4618216095       -3.3846337213        0.1517094079
 H       -10.8977448305       -3.6266448690        0.6993609134
 H       -11.5362971424       -4.7298147054        1.9402030829
 H       -10.6120333752       -3.2276086791        2.3759997962
 H       -13.8523901917        3.6719594410       -0.5249968155
 H       -13.3875568678        2.8913597155        1.0861179627
 H       -14.2025881030        1.8848527425       -0.1457817604
 H       -12.2668201131        2.9978520769       -2.7522059383
 H       -13.1274736682        1.5485464453       -2.1322704666
 H       -11.3217159149        1.6845406815       -2.5149641328
 H       -13.1874029657        7.9751455156       -3.8003905768
 H       -12.0757648532        9.2808487529       -4.0501882661
 H       -11.9737043687        8.8436796008       -2.6032336724
 H       -12.0618410523        6.3278717860       -5.4913605821
 H       -12.5923346059        5.7296141063       -3.8543137340
 H       -11.1415440639        5.1430733838       -4.5591809892
 H        -5.3219616873        9.4839252198       -5.9078784921
 H        -4.7629215093        8.3783115892       -7.2284253268
 H        -3.4568632242        8.9922643630       -6.0859278593
 H        -3.7772464418        6.1992842149       -6.3106944973
 H        -4.0050312817        5.6319301872       -4.6629833876
 H        -2.6617611354        6.8447334624       -4.9750943965
 H        -4.6882799441       10.7694431409        1.8363970816
 H        -3.6670378946        9.6271497437        0.8063978064
 H        -4.5702432423        8.9622911868        2.2044687119
 H        -6.6816138351        9.1825234185        2.3360247275
 H        -7.3554154343        8.2907440855        1.1684529843
 H        -7.8366925876        9.9502560244        0.9734794275
 Na       -7.8929066658        9.3181804296       -2.4482818258
