117

 C        -4.8712147160       12.0204958201       -0.7877482064
 C        -5.8610403767       10.9715853421       -0.5276200755
 O        -6.8927773723       10.9775261064       -1.1457509687
 C        -5.5879002393        9.5725153539        0.5090452535
 C        -5.1810194561        8.5426692276       -0.5208281817
 O        -6.1233384436        7.9310328795       -1.0542164727
 C        -3.8022244021        8.4379448784       -1.2027675666
 C        -3.8883387137        7.6765289236       -2.5406573181
 C        -4.5232113823        8.3526863043       -3.7414415456
 O        -5.2264885775        9.3435591830       -3.4814185240
 C        -4.9021983952        7.6138321859       -5.0460069064
 C        -6.4491929577        7.0733596945       -4.8435819496
 O        -6.7445749166        6.3522979851       -3.9778260012
 C        -7.4755990404        7.7678667817       -5.7264243027
 C        -8.8457630332        7.0857175035       -5.3961109347
 C        -9.7414881030        7.9183718547       -4.5773540084
 O        -9.4719134343        9.1253467589       -4.3210015223
 C       -10.9667147115        7.3888793748       -3.8526527621
 C       -10.4131237035        6.7750916235       -2.4002780203
 O        -9.4385224182        7.2624217652       -1.8470029359
 C       -11.2028710356        5.6492713599       -1.6862957366
 C       -10.3849762081        4.6220682888       -0.8397280753
 C       -11.0882859597        3.4606301942       -0.0250528817
 O       -10.4899765951        3.1840887811        1.0438690622
 C       -12.1062225777        2.4039036658       -0.4225545322
 C       -11.3546794990        1.2018504702        0.2833747179
 O       -10.3251364188        0.9210811795       -0.3732252168
 C       -11.7539533881        0.5904362571        1.6490867704
 C       -11.3786520530       -0.8754724421        1.6613587242
 C       -12.6200419867       -1.7601699684        1.1412452626
 O       -13.4878113542       -1.1370764620        0.5687459917
 C       -12.7410145578       -3.1401109046        1.5272346091
 C       -13.3432625759       -2.9469262974        2.9969308335
 O       -12.6697175694       -2.5089717247        3.9125776930
 C       -14.8048279063       -3.4857398331        3.3255179012
 C       -15.1419599532       -3.0213900234        4.7296346678
 C       -15.2908504744       -4.3493863029        5.5888536143
 O       -15.4596914949       -5.3941907082        5.0040654830
 C       -15.0335157407       -4.2221591075        7.1633440206
 C       -13.4535898068       -4.1181215619        7.3770846454
 O       -12.9293008977       -3.0633595510        7.2621688868
 C       -12.5517051293       -5.3597019252        7.6085630726
 C       -15.7898254326       -2.9297708354        7.5793182117
 C       -15.6072754017       -5.4398617559        7.9488680361
 C       -13.5825579843       -4.0183001728        0.6247830319
 C       -11.3062989506       -3.7800591986        1.9743639311
 C       -13.5230448001        2.6531393088        0.1589828244
 C       -12.1817090318        2.0567479277       -1.9614077832
 C       -11.9082324897        8.5054777101       -3.3505099636
 C       -11.5977643702        6.3440280233       -4.9037191720
 C        -4.7293467413        8.5836025375       -6.1845589297
 C        -4.1651179325        6.2203498024       -5.2841031062
 C        -4.5296610399       10.0749066274        1.4498422485
 C        -7.0109894555        9.1421818443        1.0617240963
 H        -4.0610292665       11.6157454463       -1.2571945843
 H        -4.4943900276       12.7584362439       -0.0535075396
 H        -5.2142944121       12.7030012250       -1.5227445295
 H        -3.1260212168        7.9146015371       -0.5381642369
 H        -3.4576102917        9.4083540757       -1.4155627242
 H        -4.4113379205        6.7721684549       -2.3435950359
 H        -2.8194165166        7.4239549155       -2.8520311264
 H        -7.1654277620        7.6354416652       -6.7684683486
 H        -7.5031581640        8.7354884934       -5.5493248747
 H        -8.6065683346        6.0981915529       -4.8707540578
 H        -9.3276855231        6.7044864204       -6.2995536949
 H       -11.7707879399        5.0274557050       -2.4129241817
 H       -11.9603420763        6.2840618391       -1.1723759433
 H        -9.6652736473        5.1708054216       -0.2447313299
 H        -9.8078149224        4.1675212237       -1.6070119671
 H       -12.8462250781        0.6321784316        1.9272370137
 H       -11.1188873889        1.1076272546        2.3285193229
 H       -11.2048281260       -1.1504694765        2.6584144636
 H       -10.5505069555       -1.1720429839        0.9831730180
 H       -14.8838367772       -4.5159531745        3.2694471362
 H       -15.3989851452       -3.0575206567        2.5292616074
 H       -16.1685662076       -2.5938130567        4.7161691838
 H       -14.4860377033       -2.2462573080        5.0752320477
 H       -11.4760000895       -5.2065114982        7.4010338366
 H       -12.8763667604       -6.0547901178        6.8058452024
 H       -12.6451648992       -6.0090945379        8.5973172512
 H       -15.5660596357       -2.7368649880        8.7075057183
 H       -16.8271376313       -3.1895280744        7.4598290008
 H       -15.5872190242       -2.0367003652        6.9003264967
 H       -16.1329371292       -5.1123288157        8.7875031322
 H       -14.6607016097       -6.1607552479        8.0480435934
 H       -16.2659558386       -6.0370923297        7.2012265427
 H       -14.0667031841       -4.9498470092        1.0743854780
 H       -13.0993561378       -4.3752399120       -0.2292623223
 H       -14.3508112564       -3.4369592051        0.2223186192
 H       -10.6631396360       -3.8683949432        1.0682208118
 H       -11.6686634480       -4.7326860160        2.4914531413
 H       -10.8481488868       -3.0624483817        2.6322734029
 H       -14.0810164771        3.4115678958       -0.3854936737
 H       -13.3421066044        2.9962195891        1.1742402248
 H       -14.0706713142        1.6957256124        0.3348442954
 H       -12.0187378699        2.9893724298       -2.5192380450
 H       -13.0639301948        1.4785170022       -2.3385695803
 H       -11.2919432232        1.5175503300       -2.3005004854
 H       -12.5348653500        8.0549671418       -2.6346519985
 H       -12.5266964725        8.9344331555       -4.1855229232
 H       -11.3697376824        9.3973843896       -3.1972943895
 H       -11.7400897347        6.7910505256       -5.8685353961
 H       -12.5921226880        6.0339242667       -4.5370035820
 H       -11.0300948787        5.4076350090       -5.0216728819
 H        -5.3602539016        9.4023929360       -5.7856817541
 H        -5.1473768251        8.2828580802       -7.1163911559
 H        -3.7715038668        8.8057809594       -6.3660992218
 H        -4.6342969662        5.5322269786       -6.0942498649
 H        -4.3475739415        5.6396611083       -4.4475769928
 H        -3.1120251649        6.3094747212       -5.3519153935
 H        -4.9507603959       10.9416968049        1.8860471949
 H        -3.5296941986       10.2670959527        1.0538110266
 H        -4.4552404873        9.3780076325        2.2448700832
 H        -7.1004699707        9.0585311148        2.1059190892
 H        -7.3974402647        8.1484731894        0.7868120909
 H        -7.7462563409        9.7293978801        0.6552808413
 Na       -7.6696517341        9.0249727189       -2.5399860062
