117

 C        -5.1717506004       12.4319562274       -0.6402728211
 C        -5.6692040418       10.9742252419       -0.8051647010
 O        -6.5689578729       10.8836358885       -1.5963626803
 C        -5.4777557549        9.7732727187        0.2110781886
 C        -5.1456598657        8.5850884626       -0.6971570690
 O        -5.8931507695        7.6385516928       -0.9218335193
 C        -3.7031352245        8.7718555008       -1.3702348830
 C        -3.6812859121        7.8927720981       -2.6436785831
 C        -4.7704603098        8.3405296895       -3.6055278134
 O        -5.5886287250        9.2278898028       -3.3787964610
 C        -5.0774922345        7.3345097167       -5.0053081375
 C        -6.7237852606        7.0540568812       -4.8243056010
 O        -7.2747280091        6.6778928141       -3.8295589523
 C        -7.5840156545        7.1700141783       -6.1799249644
 C        -9.1088004642        7.2756560648       -5.9452877428
 C        -9.6301033371        8.0103260010       -4.6248114351
 O        -9.0427718304        8.9564444353       -4.1821938361
 C       -10.8498933938        7.4413432678       -3.7675114497
 C       -10.2227919366        6.6696802887       -2.4912885762
 O        -9.3311012210        7.1583711991       -1.8041071365
 C       -10.7816896631        5.3178137970       -2.1868092516
 C       -10.1202315352        4.6988133200       -0.9260162926
 C       -10.6956134218        3.6548386746       -0.0179681831
 O       -10.3659069101        3.8944716498        1.1629297157
 C       -11.6574393006        2.5160425399       -0.3858068968
 C       -11.0805943436        0.9357352386        0.0005293353
 O       -10.4546466091        0.3815388396       -0.9020059363
 C       -11.4684516778        0.3888040722        1.3483630730
 C       -11.2679719056       -1.0974386504        1.7434143134
 C       -12.5455559277       -1.9866488441        1.2249027074
 O       -13.4127855164       -1.4900274604        0.5990589160
 C       -12.6882187056       -3.5021479842        1.7533094228
 C       -13.3646378520       -3.2720557363        3.1236683540
 O       -12.6370161034       -2.8114050782        4.0385962650
 C       -14.7799940254       -3.7165517564        3.3716703752
 C       -15.4454610716       -3.3207007435        4.6987704651
 C       -15.5330824375       -4.3820685131        5.7815548883
 O       -15.6309932968       -5.6015837779        5.5645128437
 C       -15.5013148616       -3.8571283049        7.3437174958
 C       -13.9364156321       -3.6133305775        7.4603603189
 O       -13.6155910929       -2.4970807151        7.2210203752
 C       -12.9291965208       -4.6530087867        7.8655965178
 C       -16.1627629347       -2.4963260762        7.6120935584
 C       -16.0541666903       -4.9186209535        8.2620215718
 C       -13.6536619604       -4.1521434385        0.7166202216
 C       -11.1719680940       -4.0869619690        1.6265309398
 C       -12.8625412512        2.7674472330        0.5163003434
 C       -11.9769210571        2.4855103348       -1.8794215596
 C       -11.6665933339        8.7842224199       -3.2188524548
 C       -11.7830315549        6.4763082583       -4.5890069481
 C        -4.7389135317        8.3065524688       -6.1156012563
 C        -4.3438288915        6.0418163789       -5.0195099634
 C        -4.2673156434       10.0018847488        1.1619327639
 C        -6.9180172141        9.5636547080        0.8596303282
 H        -4.1785231177       12.6265822556       -0.2434568796
 H        -5.8986838311       13.0150489099       -0.0002010431
 H        -5.1576276621       13.0503360290       -1.5722284188
 H        -2.9248565637        8.4628159803       -0.6630273030
 H        -3.5444990693        9.8846264292       -1.6711867507
 H        -3.9514348541        6.9574825212       -2.3787009020
 H        -2.6788880684        7.8951117395       -3.1306164366
 H        -7.2798030439        6.2612622040       -6.7881206421
 H        -7.2353526138        8.0354802310       -6.7080799963
 H        -9.4227887424        6.1627059027       -5.9420074231
 H        -9.6277713664        7.5049874379       -6.8302363074
 H       -10.5479286511        4.7011583296       -3.0487250462
 H       -11.8522340663        5.3403831765       -2.0838448768
 H        -9.5766203587        5.4708788931       -0.3984848738
 H        -9.3028416058        4.0076798826       -1.4257379921
 H       -12.4777013416        0.6458272826        1.3777787252
 H       -10.8671437671        0.8241446568        2.1503072169
 H       -11.4264295015       -1.2132005186        2.8563720630
 H       -10.2584336983       -1.4655620576        1.4949390015
 H       -14.8738846845       -4.8330766905        3.2301896156
 H       -15.3466553184       -3.2555374633        2.5096882641
 H       -16.5333739839       -3.0776228964        4.3422188159
 H       -15.0979330256       -2.3042142387        4.9686573168
 H       -12.1130322697       -4.3231762656        7.3102685922
 H       -13.2492202880       -5.6485229923        7.7010230948
 H       -12.6109990061       -4.7146901065        8.8995790982
 H       -16.6308057341       -2.5451799510        8.6069314080
 H       -16.9930520951       -2.3464187043        6.9851941652
 H       -15.3998703337       -1.7547958641        7.5132728005
 H       -16.7154663908       -5.4956308448        7.7308235776
 H       -16.6366431584       -4.4855024886        9.1167654607
 H       -15.1872930230       -5.5713967517        8.4848265017
 H       -13.7930876278       -5.2590283692        0.7996876096
 H       -13.1824508735       -4.1103544119       -0.2853543991
 H       -14.6062843832       -3.7187471647        0.5738391685
 H       -10.7526831455       -3.7668793004        0.7059664295
 H       -11.3258010445       -5.2201430172        1.7139211747
 H       -10.6956127733       -3.7491106318        2.4938754993
 H       -13.1691101190        3.7897015145        0.3503807480
 H       -12.8307385387        2.6628609453        1.5911700573
 H       -13.6374321977        2.0245998203        0.1532934070
 H       -12.8771261828        3.0798324803       -2.1259369342
 H       -12.0756715236        1.4404779618       -2.1398909099
 H       -11.1262729100        2.5771550716       -2.6053745250
 H       -11.4700205521        8.7829343758       -2.1608777564
 H       -12.7770755011        8.6506893738       -3.4610376933
 H       -11.3943523775        9.7107338945       -3.7018245480
 H       -12.1692081947        6.9729814850       -5.4615949065
 H       -12.6817047574        6.0811420919       -4.1286605139
 H       -11.0951535056        5.6978082258       -4.9958346953
 H        -5.3324693398        9.3341032884       -6.1256694144
 H        -4.7881671763        7.6951923034       -7.0697400430
 H        -3.6677252680        8.5090079157       -6.0055953900
 H        -4.3847763207        5.5345207709       -6.0835478603
 H        -4.6976658146        5.2092369572       -4.4099703212
 H        -3.2655392173        6.2180423870       -4.7828297146
 H        -4.4422898942       10.8409875100        1.8475365139
 H        -3.4480682134       10.3486268344        0.4942567212
 H        -3.9677043994        9.0978523643        1.7978269279
 H        -7.5043207377       10.5183521038        1.0478215097
 H        -6.9783197351        8.9807028996        1.8912259349
 H        -7.5878935572        8.9189842791        0.2869989021
 Na       -7.5618831566        8.4565285653       -2.3350153732
