117

 C        -5.6079603345       12.4999265269       -0.6001062963
 C        -5.9311715188       11.0519690215       -0.9238116438
 O        -6.6325946017       10.7313051864       -1.8492392453
 C        -5.4375761174        9.9126577091        0.1357876706
 C        -4.9492013446        8.6302964340       -0.7280180800
 O        -5.5762407833        7.6214334747       -0.8402879691
 C        -3.6379881895        8.6861779330       -1.5518811747
 C        -3.7185070273        7.8449796271       -2.8850875498
 C        -4.8633814550        8.2093010895       -3.7848300357
 O        -5.5775723831        9.1779872667       -3.6616682958
 C        -5.2297980086        7.2057140348       -4.9884664402
 C        -6.8280400357        6.9225308260       -4.9507490287
 O        -7.4295039356        6.4100632242       -3.9816620805
 C        -7.6707412842        7.0019370568       -6.2284830375
 C        -9.2373565760        7.1921459696       -6.0080491251
 C        -9.4491330469        7.8610974263       -4.6914261122
 O        -8.6352939948        8.6261000370       -4.2543569820
 C       -10.6301640605        7.5222972566       -3.7067367477
 C        -9.9593303992        6.6087693769       -2.3727378941
 O        -9.3356160884        7.2217155914       -1.5446789449
 C       -10.3736744976        5.0820714750       -2.1511974245
 C        -9.4455575007        4.1785780644       -1.2856458558
 C       -10.3285531577        3.6519054033       -0.0495923960
 O       -10.2175262400        4.1652254870        1.0764712716
 C       -11.4786680992        2.5180538632       -0.3200811291
 C       -10.9453016081        0.9488590477        0.0763469700
 O       -10.5688690098        0.2616464377       -0.8508059933
 C       -11.2753936701        0.2916882756        1.4075219571
 C       -11.2360770641       -1.2325477677        1.2455292580
 C       -12.6067987834       -2.0112850356        1.1436961175
 O       -13.5558090102       -1.5853219705        0.5690964988
 C       -12.6813373036       -3.4097162696        1.6850702367
 C       -13.3204399052       -3.5646950765        3.2385535340
 O       -12.5435109551       -3.3446842261        4.2049207368
 C       -14.7215366312       -4.1199775322        3.5139774200
 C       -15.2176837641       -3.3780231834        4.7474813277
 C       -15.5305978033       -4.2276434709        5.9169987331
 O       -15.6970125905       -5.4728072066        5.8922366007
 C       -15.8147351091       -3.4450986840        7.2701109129
 C       -14.3897632518       -2.9164997101        7.6053030394
 O       -14.0016028231       -1.8109134786        7.4115381552
 C       -13.4601100738       -4.0889468321        8.1396790061
 C       -16.8620270990       -2.3553068094        7.0973590244
 C       -16.1906165198       -4.4707675436        8.3678962159
 C       -13.6305404329       -4.2675573868        0.7335317580
 C       -11.3603419433       -4.3221253297        2.0006545769
 C       -12.7183962180        2.9317665261        0.4810355068
 C       -11.9829597460        2.4349510681       -1.9106952788
 C       -11.1808081606        8.7736321651       -3.0299491191
 C       -11.6947439701        6.8045879684       -4.5429705527
 C        -4.8026572825        7.8452521684       -6.3514929261
 C        -4.7687023635        5.6977403130       -4.9275453787
 C        -4.2772058239       10.5914908408        0.9864946580
 C        -6.5590931766        9.5085217734        0.9773814857
 H        -4.5693666423       12.8605551073       -0.6394162373
 H        -6.0393392906       12.8469670072        0.3126231992
 H        -6.1891942664       13.1019671499       -1.3315527700
 H        -2.8124849697        8.3666974307       -0.9818142365
 H        -3.3269502114        9.8291106940       -1.7757823139
 H        -3.9631358831        6.8622151322       -2.5369273114
 H        -2.6692414328        7.9451005997       -3.3144662751
 H        -7.5410338949        6.1200238105       -6.8924404659
 H        -7.3487383775        7.9678680636       -6.7703561568
 H        -9.7948256183        6.2930162722       -6.2455897111
 H        -9.5330359953        7.6912874710       -6.9021027232
 H       -10.4886177803        4.6393334169       -3.1673985231
 H       -11.3264886219        5.0029917130       -1.6155104486
 H        -8.6243960425        4.7216936394       -0.9233358707
 H        -8.9691992630        3.3872543114       -1.9897160860
 H       -12.2107352350        0.6539358924        1.7454543857
 H       -10.4066664722        0.5203633710        2.2221661039
 H       -10.5681762414       -1.8079553968        1.9269203147
 H       -10.8783148465       -1.5777830884        0.3253268657
 H       -14.7501978991       -5.1795889059        3.8767010450
 H       -15.3478433370       -3.9095271181        2.6703048786
 H       -16.0024060002       -2.7958944673        4.3372103445
 H       -14.6184617941       -2.4960370669        4.8793539505
 H       -12.5013228777       -3.7695633471        8.4898054978
 H       -13.6583819141       -5.0912741013        7.6719952711
 H       -13.9790999449       -4.4047120386        9.0787823152
 H       -16.8363155071       -1.7047954021        7.9927690766
 H       -17.8719247456       -2.8304730029        7.1531065579
 H       -16.6203485311       -1.7854629294        6.2742763779
 H       -15.9616055022       -5.4730149229        8.0658150535
 H       -17.2545911153       -4.3748554667        8.3866116572
 H       -15.7144548886       -4.3352959991        9.3030547172
 H       -13.9347721095       -5.1653555305        1.2094846852
 H       -13.0344642645       -4.6957419562       -0.1241109546
 H       -14.4749119685       -3.8111898088        0.2604847246
 H       -10.9767080635       -4.3920140119        1.0743575566
 H       -11.6243256555       -5.2964296359        2.5014277509
 H       -10.7832508094       -3.7744181813        2.6584262093
 H       -13.1008987047        3.8657095842        0.1454963403
 H       -12.4396763897        3.1223599120        1.4756807868
 H       -13.5435885471        2.1676405817        0.4765777742
 H       -12.5273387004        3.3295997578       -2.0750088223
 H       -12.6267625455        1.7449726269       -2.3691240413
 H       -11.0746568882        2.2044098844       -2.4922988910
 H       -10.3838179066        9.5662393764       -3.1137007199
 H       -11.6187606689        8.5258384458       -2.0200073007
 H       -11.9532455316        9.2364304971       -3.6342209669
 H       -12.0501994606        7.4648246631       -5.3200373672
 H       -12.5897620432        6.7388411508       -3.9496483101
 H       -11.5365992070        5.8319198896       -5.0126201470
 H        -5.1475019979        8.8671059180       -6.2760196597
 H        -5.1595677173        7.3346106560       -7.1771927007
 H        -3.7846234648        8.0337851901       -6.3800929448
 H        -5.4083840957        5.0257873272       -5.4654348752
 H        -4.7885150851        5.3611214749       -3.9430295980
 H        -3.8188102335        5.4955186199       -5.2857207124
 H        -4.5908741951       11.3739393486        1.5917075937
 H        -3.4862266434       10.9093092521        0.4173346036
 H        -3.9159178263        9.8048074606        1.6777052408
 H        -7.4765481519        9.5741042820        0.4579380061
 H        -6.5728982107       10.0588138412        1.9434925365
 H        -6.6057053455        8.5798064568        1.3660570153
 Na       -7.6101139763        8.7660701063       -1.9565480779
