117

 C        -5.9235601534       12.6296817972       -0.6752216041
 C        -6.1613564276       11.1074725944       -0.7500520296
 O        -7.2989163314       10.8090071353       -1.1265722068
 C        -5.2306093637       10.1000724671       -0.0873119434
 C        -5.1538615641        8.9194754371       -1.0655139584
 O        -5.9539776829        8.0130337464       -1.1896790543
 C        -3.9040113276        8.8505323840       -1.9883232300
 C        -3.8886285920        7.7176708097       -2.9576831847
 C        -4.9667206180        7.7205817177       -3.9720234274
 O        -5.7362077826        8.6631620523       -4.1784173660
 C        -5.0492294660        6.5999999081       -5.0466088066
 C        -6.6612885053        6.3336086920       -4.9875747752
 O        -7.0481620556        5.8464128413       -3.9367001118
 C        -7.6130086482        7.0779370765       -5.9311386011
 C        -9.1289703189        7.1310857133       -5.6323491920
 C        -9.4996240464        7.8629801779       -4.3412236615
 O        -8.8107392010        8.8635191553       -4.1703354879
 C       -10.5210443372        7.4889106900       -3.2393803363
 C        -9.8765020299        6.3228117510       -2.2892631072
 O        -8.8483919309        6.6434721332       -1.6654909575
 C       -10.3185197958        4.7599522993       -2.3962528628
 C        -9.5363355125        3.8066128070       -1.5704981987
 C       -10.2670077142        3.2190832348       -0.3656366360
 O        -9.9435315160        3.6019575244        0.7466158352
 C       -11.5056970178        2.2928788892       -0.4198833739
 C       -10.8775216965        0.9127246759       -0.1109370478
 O        -9.8531072327        0.5015421958       -0.6053364463
 C       -11.7096760530        0.1228784069        0.8817975085
 C       -11.2751550792       -1.2724976482        1.2137411970
 C       -12.6218449153       -2.0776672192        1.4005086473
 O       -13.6349056994       -1.4772717574        1.2645494881
 C       -12.5965221020       -3.6223932159        1.6924461109
 C       -13.0848052478       -3.6304337568        3.1791220404
 O       -12.3245949777       -3.2164175465        4.0604190690
 C       -14.5709815052       -4.0135500396        3.5568289551
 C       -15.1518282674       -3.1254090951        4.7076042592
 C       -15.6175567250       -3.9283037649        5.9552274711
 O       -15.5201601647       -5.1164216425        6.0153122354
 C       -16.1323991138       -3.0654085239        7.1817424861
 C       -14.9400870855       -2.2016803612        7.9328082007
 O       -14.9459802355       -1.0214583644        7.9164983174
 C       -13.8115664062       -2.9939738827        8.4406217776
 C       -17.2657498165       -2.0384568672        6.6105342838
 C       -16.7614474559       -4.1313772649        8.1838157483
 C       -13.4668168398       -4.3182934547        0.7020522706
 C       -11.1645299433       -4.2315238224        1.7303766347
 C       -12.5137076802        2.7573529388        0.6887061542
 C       -12.2094641267        2.2607838992       -1.6746073392
 C       -10.7044740116        8.7590588294       -2.3408303479
 C       -11.8515895054        7.3029285041       -3.9429218997
 C        -4.5473509999        7.2125834050       -6.4140101859
 C        -4.2142268805        5.3279904966       -4.7952322444
 C        -3.9125578252       10.7450197311        0.1514780593
 C        -6.0402946100        9.6781652257        1.2751954609
 H        -5.1391119549       12.9905028329       -1.3107050033
 H        -5.5544329825       12.8113423478        0.3383447978
 H        -6.8516451053       13.1786639342       -0.6946295941
 H        -3.0499201963        8.9164455207       -1.3477027554
 H        -3.7643093021        9.8425101713       -2.5788588009
 H        -3.8658024528        6.7784604706       -2.4413889388
 H        -2.9094691507        7.8013411493       -3.6333745726
 H        -7.2667870334        6.7652918993       -6.9883003100
 H        -7.3588428051        8.1143068193       -5.7248529555
 H        -9.4975504794        6.0846102981       -5.7666105200
 H        -9.6440165656        7.6514800068       -6.3922087208
 H       -10.1173870621        4.4913758381       -3.4713767857
 H       -11.4147537143        4.7926222105       -2.2838167503
 H        -8.6935144789        4.3236910024       -1.2494249231
 H        -9.1985593552        2.9919517400       -2.2513934993
 H       -12.7390919918        0.2112644130        0.4896174794
 H       -11.6952260009        0.6961961393        1.9081986214
 H       -10.7295357591       -1.4502748222        2.1880237233
 H       -10.5340309460       -1.6776304668        0.5749154197
 H       -14.4922500507       -4.9440015575        4.0696633537
 H       -15.2079138477       -4.0505845305        2.7342098959
 H       -15.8701395570       -2.4336366093        4.3087173133
 H       -14.3849054612       -2.3838767790        4.8040756524
 H       -12.8195045488       -2.6310159157        8.1210113442
 H       -14.0475208804       -4.0831502265        8.4031891571
 H       -13.7429633404       -2.7288099634        9.5860249791
 H       -17.6894688065       -1.5855366118        7.5907267559
 H       -17.9867371867       -2.5721430567        6.0376377607
 H       -16.8561160639       -1.1233647757        6.0929020799
 H       -16.2137553234       -4.2223603019        9.0357736112
 H       -16.7287812393       -5.1548268384        7.6676455503
 H       -17.8427153950       -3.9281005189        8.5338480279
 H       -13.6817932285       -5.3037547644        1.1588016550
 H       -13.0861053279       -4.4305608774       -0.3241742591
 H       -14.4371980221       -3.9618701969        0.6616360698
 H       -10.6805266783       -3.9700033222        0.7781888963
 H       -11.2787384449       -5.3523065844        1.9652023652
 H       -10.7356153831       -3.7095322075        2.5527386766
 H       -13.1591191340        3.5814684619        0.4546537648
 H       -12.1069447915        2.8473679310        1.7011666659
 H       -13.3888279566        2.0380805900        0.5737041992
 H       -12.2985292553        3.2357272421       -2.1655775200
 H       -13.2296087764        1.9570059656       -1.6261225175
 H       -11.6464558249        1.6228126986       -2.3778647316
 H       -11.3078559975        9.4430189994       -2.8997630091
 H        -9.6605286563        9.0603374939       -2.0778948593
 H       -11.3993751746        8.7067212807       -1.5623435549
 H       -12.1952606306        8.1533102050       -4.4889893390
 H       -12.6122335316        6.8877931331       -3.3074676490
 H       -11.7374012281        6.5399689984       -4.7445882821
 H        -4.9864794592        8.1539153764       -6.7658817629
 H        -4.7700951780        6.3936534057       -7.0698953149
 H        -3.5614518415        7.3413537279       -6.4140644340
 H        -4.0167705041        4.8580164213       -5.8060046011
 H        -4.8193510563        4.6781382627       -4.2674120131
 H        -3.2636399233        5.2533348015       -4.3469713296
 H        -3.9509143882       11.6416863236        0.7273125196
 H        -3.3711145375       10.9337365843       -0.7723983344
 H        -3.2618847686       10.0393211440        0.7430758309
 H        -6.7796590537        8.9881345625        1.0737221806
 H        -6.4901310210       10.5900254733        1.7541891583
 H        -5.5561591729        9.2583239065        2.0928969718
 Na       -7.4691892793        8.6085454438       -2.4431661388
