117

 C        -6.0653002882       12.6765705774       -0.6723066183
 C        -6.3477453354       11.1391012648       -0.6674599670
 O        -7.3948156888       10.6767909691       -1.0987259658
 C        -5.1221976258       10.1874012365       -0.1806677408
 C        -5.0758365517        8.8984839882       -1.0064821206
 O        -6.0299946058        8.1049203051       -0.9709521194
 C        -3.9011649140        8.8513724885       -2.0570091696
 C        -3.8400815276        7.7472468921       -3.0527895319
 C        -4.8963840635        7.7995253190       -4.1459760047
 O        -5.7297902870        8.7169658959       -4.0915224924
 C        -5.0596693086        6.3651780589       -5.2094775643
 C        -6.6332509020        6.2223741425       -4.8651117919
 O        -6.9560758454        5.5747028869       -3.9535175505
 C        -7.6060179912        7.0119277976       -5.8166849997
 C        -9.1019473487        7.0422555053       -5.5946668663
 C        -9.4437859288        7.9065149515       -4.2786716180
 O        -8.8695327763        8.9784933465       -4.2011095436
 C       -10.5087250682        7.4641904407       -3.2531627550
 C        -9.8464013588        6.2595134563       -2.5250907250
 O        -8.8121875107        6.4862517181       -1.8925456424
 C       -10.3806435931        4.7955839582       -2.5292400281
 C        -9.5342900911        3.8521141647       -1.6134188151
 C       -10.2042836953        3.3455565805       -0.3275599383
 O        -9.7794218848        3.6362841126        0.7464196679
 C       -11.5386355117        2.2374874489       -0.4893494337
 C       -10.9388259957        0.9134643408       -0.0656074222
 O        -9.8601172781        0.4754795660       -0.4516555168
 C       -11.8798560320       -0.0137555559        0.7839045262
 C       -11.3863123308       -1.3903017462        1.1144377512
 C       -12.6405282266       -2.1450468918        1.4809805101
 O       -13.7507414664       -1.5845461643        1.3943585106
 C       -12.5711566687       -3.5936105071        1.7766571842
 C       -13.0029812255       -3.5590561951        3.2558404580
 O       -12.2563705317       -3.1933295855        4.1055524854
 C       -14.4701684183       -4.0135494140        3.6342957055
 C       -14.8853685416       -3.0277778654        4.7651787931
 C       -15.4839366544       -3.7532737199        5.8817757350
 O       -15.3889001638       -4.9624042234        5.9583507528
 C       -16.2321319087       -2.9107505837        7.0125437125
 C       -15.1482246123       -2.0771483672        7.7802477815
 O       -15.2531739263       -0.8953148416        8.0101936828
 C       -14.0035086218       -2.8989423530        8.5326448686
 C       -17.3786430653       -2.0628053698        6.4893063329
 C       -16.7305697497       -3.8494074431        8.1090688851
 C       -13.5695052566       -4.1691888099        0.6900427703
 C       -11.1402163450       -4.1179420860        1.8896054043
 C       -12.4203857257        2.7174553674        0.7997368062
 C       -12.2139044886        2.1105604805       -1.8552981627
 C       -10.5489917758        8.5096491164       -2.0198763453
 C       -11.9750125017        7.2925877682       -3.7574178919
 C        -4.4798936925        7.0321494616       -6.4706837746
 C        -4.2275939560        5.1957984245       -4.7587900989
 C        -3.7722038113       10.8425364071       -0.0612584991
 C        -5.8226111528        9.6417565315        1.2535286029
 H        -5.1741175421       12.5878670117       -1.2436011977
 H        -5.7067178674       13.1357974827        0.2958282644
 H        -6.8256101972       13.3248596571       -1.0443848865
 H        -2.8871247895        9.0632946096       -1.4559128572
 H        -3.9537056690        9.7872253979       -2.5649349083
 H        -3.8996827742        6.7944433639       -2.5463664312
 H        -2.8507644752        7.8004569941       -3.5688113514
 H        -7.2610538871        6.5026918082       -6.8196204390
 H        -7.3451273891        8.0485954620       -5.8159708192
 H        -9.3222592808        5.9411027089       -5.4467527057
 H        -9.6699601487        7.3216247443       -6.4268029966
 H       -10.5854692201        4.3736070943       -3.5262715972
 H       -11.3505413619        5.0540193477       -2.0706077307
 H        -8.5441572789        4.4230293559       -1.3486626589
 H        -9.2861296259        2.9407401560       -2.1723939443
 H       -12.8101710176        0.0710461939        0.1134526413
 H       -12.1583595092        0.3476368417        1.6619073801
 H       -10.6749137984       -1.4112784071        1.9338370178
 H       -10.7650847196       -1.9179893754        0.3934730421
 H       -14.5158016293       -5.0073501254        4.0876190445
 H       -15.1784684589       -3.8991977311        2.7799412793
 H       -15.4934380228       -2.1682152437        4.3152238303
 H       -13.9941991620       -2.4142240226        4.9556087528
 H       -13.0028219713       -2.6659057302        8.0198489117
 H       -14.2640463087       -3.9459709127        8.4721638458
 H       -13.7866290862       -2.5961086469        9.5885602882
 H       -17.9295317796       -1.7363670795        7.3244970179
 H       -17.9264730939       -2.6270515338        5.7878700111
 H       -17.0133862890       -1.1049989946        6.0061599724
 H       -16.0903670338       -3.7565973715        9.0326641145
 H       -16.5432303461       -4.7928878639        7.7892731697
 H       -17.7046992361       -3.8103086956        8.3812729578
 H       -14.0704717670       -5.1673130646        0.8924200552
 H       -13.0046887375       -4.2517774401       -0.1859358142
 H       -14.4361670271       -3.5549624720        0.4967148234
 H       -10.7232287223       -4.0939790875        0.8877857233
 H       -11.1862162498       -5.0311762713        2.2884186907
 H       -10.6691749018       -3.4019267851        2.5344497930
 H       -12.7696619014        3.7126109972        0.6422595428
 H       -11.8766194872        2.6613973629        1.7323358490
 H       -13.3711027084        2.2739577411        0.8096241716
 H       -12.5012858019        3.1299197759       -2.2184475567
 H       -13.1643358921        1.5024052660       -1.7999131244
 H       -11.5599750195        1.7767620525       -2.6348759494
 H       -11.3521336341        9.2064073853       -2.1103030132
 H        -9.5450680736        8.8969973884       -1.9155743372
 H       -11.0310966450        8.0707425399       -1.1268065167
 H       -12.2128721490        8.1959741010       -4.2686680433
 H       -12.6330693716        7.1423170035       -2.9019383656
 H       -12.2665890152        6.5512987633       -4.5030967713
 H        -4.7974813298        7.9661566560       -6.7545757228
 H        -4.6424073178        6.3338494532       -7.2579633133
 H        -3.4009913528        6.9543951412       -6.3428865837
 H        -3.7036761720        4.8685282095       -5.5930220887
 H        -4.8363087086        4.3986004334       -4.4125122165
 H        -3.4814157037        5.2682178832       -4.0395200684
 H        -3.8510606303       11.6406963364        0.6408567850
 H        -3.4478606388       11.2394293735       -1.0316612518
 H        -3.0030858860       10.2412371151        0.2391333044
 H        -6.7723983632        9.2001216936        1.0384924350
 H        -5.9628079840       10.3421265930        2.0193039309
 H        -5.3359682935        8.7433800954        1.7371134006
 Na       -7.5255422463        8.6407475968       -2.4775776947
