117

 C        -6.6000302980       12.4711621251       -0.5702706655
 C        -6.3734885605       11.0353678700       -0.5984509838
 O        -7.2672317661       10.3510124626       -1.1382357338
 C        -5.0109914102       10.3619982941       -0.1784624198
 C        -4.7398493318        9.0925588193       -1.1292104813
 O        -5.5560077388        8.1869749584       -1.0167659318
 C        -3.6882431808        8.9131407237       -2.2572397638
 C        -3.8757977932        7.5616420781       -2.9219173184
 C        -4.9002344158        7.5500155516       -4.0187906703
 O        -5.6616108548        8.5359457168       -4.1919824764
 C        -5.1074631760        6.3594146186       -4.9286353475
 C        -6.7937821024        5.8348646648       -4.9822631902
 O        -7.2178336714        4.7948776321       -4.6355803276
 C        -7.5956071033        6.9490190291       -5.6306624759
 C        -9.2457121563        6.8775056441       -5.2740120801
 C        -9.5317066626        7.8691989372       -4.1559812468
 O        -9.2534508205        9.0482494170       -4.2673549548
 C       -10.3814813732        7.4012309690       -2.8787324508
 C        -9.5509734651        6.0857055231       -2.5414733999
 O        -8.3060048565        6.2041497146       -2.5424749996
 C       -10.2054539346        4.7818900537       -2.3532153305
 C        -9.4064813129        3.5814776230       -1.9329796087
 C        -9.9884382672        3.3419672397       -0.5810283483
 O        -9.5327141101        3.9052406467        0.3801093375
 C       -11.3223321013        2.5952262590       -0.5102028235
 C       -10.9927586645        1.0661202095       -0.0512331968
 O        -9.8681431821        0.6388360034       -0.0720990770
 C       -12.1604516687       -0.0354244129        0.6738931725
 C       -11.6666661589       -1.5239189255        0.6641785103
 C       -12.8265867815       -2.3289791967        1.3530591925
 O       -13.7852947967       -1.7174821252        1.7725663814
 C       -12.4897477756       -3.8481109795        1.8421288370
 C       -12.7366377024       -3.5454194658        3.4236606682
 O       -11.8762949796       -3.4746129115        4.2112400369
 C       -14.2295466802       -3.5128064253        3.7847161200
 C       -14.6494977147       -2.6922494579        5.0583107556
 C       -15.5976786564       -3.5310534304        6.1119477174
 O       -15.2889442116       -4.6491415044        6.3962233470
 C       -16.5833410049       -2.6987677249        6.9487934224
 C       -15.6615676964       -1.6013298222        7.9005168776
 O       -16.0736401688       -0.4743134951        7.9960320648
 C       -14.2930818439       -2.0212393972        8.4064767607
 C       -17.5568412589       -1.8718078367        6.2491824790
 C       -17.3667276163       -3.6623699864        7.7787829934
 C       -13.4340419999       -4.9880851370        1.3762088551
 C       -11.0270217295       -4.1285112360        1.4825525510
 C       -12.3634577137        3.1859394197        0.4596256934
 C       -12.1114683063        2.2944743157       -1.8710422072
 C       -10.5997963135        8.4245188759       -1.7885409645
 C       -11.6977108607        7.0960645450       -3.5734383123
 C        -4.8365691884        6.5937331567       -6.4178368273
 C        -4.2819754445        5.1062549858       -4.5873289916
 C        -3.8994733639       11.3888809479       -0.4680236751
 C        -5.0569535996        9.8530129926        1.3706824672
 H        -5.7864210518       12.9291062984       -1.1363938109
 H        -6.5530615860       12.8931107357        0.4927897229
 H        -7.6104705964       12.5410197525       -0.9853009530
 H        -2.5919038674        9.1135675408       -1.9388764924
 H        -3.9209311538        9.7265271883       -2.9759729330
 H        -4.1357337936        6.8051651446       -2.1961092121
 H        -2.8246827258        7.1727536376       -3.3164994409
 H        -7.6265438473        6.7439745812       -6.7921492157
 H        -7.1781758943        7.8879504836       -5.4538165122
 H        -9.4920428594        5.7926830159       -5.0115303228
 H        -9.6457517785        7.0600841001       -6.2245847363
 H       -10.9602923278        4.5996253816       -3.1588424475
 H       -10.8870585194        5.0692013199       -1.5386391129
 H        -8.3671386024        3.7579312817       -1.8294562487
 H        -9.6180609156        2.7206142895       -2.5114902563
 H       -13.1273850515        0.1103604483        0.0114513822
 H       -12.4544819074        0.3827541413        1.6121908576
 H       -10.7167807004       -1.7514182500        1.2197474833
 H       -11.3821227133       -1.7541659157       -0.3605317623
 H       -14.3946354126       -4.5505714452        4.0907664176
 H       -14.9050168110       -3.2154570214        3.0303445921
 H       -15.2616613961       -1.8709314074        4.5966198999
 H       -13.9209764323       -2.1800281719        5.6618491750
 H       -13.3615892001       -1.6319372331        7.9303163215
 H       -14.1520123286       -3.0870776646        8.4177160583
 H       -14.4141918857       -1.6222738462        9.4717353279
 H       -18.2283455250       -1.4771556763        7.0614461305
 H       -18.0669547019       -2.4589162544        5.5286355493
 H       -17.0945326220       -1.0503163150        5.5453628288
 H       -18.2055860683       -3.1792958118        8.4166851996
 H       -16.7883697086       -4.1965812551        8.5849806849
 H       -17.6973898822       -4.4937457872        7.1526817945
 H       -12.9276692982       -5.9508481851        1.7729488143
 H       -13.4162064077       -5.2079888681        0.3007507977
 H       -14.4238824223       -5.0027652120        1.7492290638
 H       -10.9386307328       -3.9381986131        0.3324874626
 H       -10.8208983668       -5.1824617744        1.5641554942
 H       -10.3922652211       -3.4237410797        2.1169620709
 H       -12.8301329784        4.1920554299        0.2365616315
 H       -11.7031884263        3.2774163928        1.3930117975
 H       -13.1381489465        2.4293886072        0.7902628305
 H       -12.6373223884        3.1687081363       -2.2042652025
 H       -12.6965301083        1.4112951729       -1.7698247670
 H       -11.4784226110        2.2499580903       -2.7091999499
 H       -10.9257251808        9.3573559886       -2.3004340581
 H        -9.6070728257        8.7597285144       -1.4057609527
 H       -11.4210964075        8.2200176407       -1.0992460413
 H       -12.2682483901        7.9708402226       -3.7943697404
 H       -12.2691384616        6.4767165926       -2.8826413143
 H       -11.6807589190        6.5460665583       -4.5500473271
 H        -5.3770014886        7.5246823938       -6.6110406377
 H        -5.1618754856        5.8228759916       -7.1874659100
 H        -3.7783075270        6.7719530262       -6.4817511073
 H        -4.1313103978        4.2571528241       -5.3037629127
 H        -4.6303070719        4.6336953980       -3.6207791742
 H        -3.2351672596        5.4254832318       -4.3129664740
 H        -4.1206446619       12.3951870677       -0.0553776978
 H        -3.6077782572       11.5321232102       -1.5774981118
 H        -2.9944492167       11.0649395879        0.0707340194
 H        -6.0493601139        9.4273271045        1.4815308605
 H        -5.1019237113       10.6135783007        2.1564028626
 H        -4.4421807958        8.9853280696        1.6483296575
 Na       -7.4349578796        8.3805468447       -2.3589920519
