117

 C        -6.7110999590       11.9591873776        0.2349201941
 C        -6.3838082938       10.8330463743       -0.7056932717
 O        -7.2078368308       10.3211176289       -1.4957704576
 C        -4.8195251538       10.5323630846       -0.8240168103
 C        -4.6975256147        8.9843000817       -1.4009410057
 O        -5.2070450550        8.0738274452       -0.7674595975
 C        -3.6963501971        8.6152778947       -2.5269109390
 C        -3.8071368653        7.3151344047       -3.2881365682
 C        -5.1202444358        7.3716641147       -4.1675434041
 O        -5.9745655207        8.1967095733       -4.0340346607
 C        -5.3201933100        6.0858072524       -5.0501632556
 C        -6.8964206896        6.1175577280       -5.3483451520
 O        -7.5171182976        5.1123243333       -5.0417234663
 C        -7.6542158537        7.2407517653       -6.1083904112
 C        -9.1109086629        7.3243416809       -5.7043231871
 C        -9.1155891377        7.6064860833       -4.1495155292
 O        -8.2657231531        8.4485208474       -3.8266437510
 C       -10.1532826895        7.0570922333       -3.0929131363
 C        -9.4036091993        5.7828295311       -2.4863847477
 O        -8.4349997554        5.9747027584       -1.7831107340
 C        -9.8052897661        4.3247077221       -2.7213641746
 C        -9.2561044656        3.2115398435       -1.8398708352
 C        -9.9847116463        3.0038735643       -0.4835261330
 O        -9.5119430016        3.3936388372        0.5627727259
 C       -11.3630956046        2.2995295909       -0.4340982680
 C       -11.1333637117        0.7625475076        0.1475102211
 O        -9.9846013473        0.4623537087        0.4299289328
 C       -12.3676017598        0.0761386514        0.6338555703
 C       -11.8901296465       -1.3261880191        0.8575026122
 C       -13.0034039784       -2.3645588743        1.3931096190
 O       -14.1295915867       -2.0113679008        1.4845213677
 C       -12.3605654793       -3.6295539124        2.1600573817
 C       -12.6970510783       -3.3912530415        3.7155406871
 O       -11.7386853829       -3.1261226519        4.3871811239
 C       -14.1595261673       -3.3290629827        4.2734171740
 C       -14.1691624103       -2.6702360639        5.6298217144
 C       -15.3668364173       -3.2176293832        6.5199142797
 O       -15.5079816292       -4.3292806789        6.9222198330
 C       -16.6468534570       -2.1150229034        6.7867062077
 C       -16.5182864344       -0.7417075798        7.7230838106
 O       -17.2725002837        0.1304673529        7.5201619482
 C       -15.4268246618       -0.6358960203        8.7052970016
 C       -17.0812282179       -1.4752095666        5.4444156211
 C       -17.7651018231       -2.9129927880        7.3746671565
 C       -13.1033396711       -5.0420069388        1.9491055747
 C       -10.8510952318       -3.8988003480        1.8779810957
 C       -12.2284928092        3.0975635747        0.4434092036
 C       -12.0419838827        2.1777674199       -1.8340773540
 C       -10.4416552671        8.0360789790       -2.0163537298
 C       -11.4772810952        6.6782579155       -3.8315880761
 C        -4.3879701022        6.2266350193       -6.2437192897
 C        -5.0465070674        4.8667859221       -4.2285209736
 C        -4.1052140855       11.5249775173       -1.7688587684
 C        -4.0037054982       10.5291484105        0.4376015366
 H        -7.6111491772       11.7439145073        0.8164831926
 H        -6.7734146190       12.7104860912       -0.5102211949
 H        -5.9234435135       12.0614456760        0.9850073124
 H        -2.8172407506        8.6182704785       -2.0127932781
 H        -3.7069041828        9.5327181782       -3.2570433150
 H        -3.7623565596        6.4180917898       -2.5975263864
 H        -2.9477901300        7.1046428970       -3.8712235530
 H        -7.6168230262        7.1883782136       -7.2005152354
 H        -7.1325426816        8.2120448400       -5.8158624719
 H        -9.5354245678        6.3780146511       -5.7999568596
 H        -9.6827967983        8.2127925172       -6.1515613914
 H        -9.3936181612        3.9906353841       -3.6832543783
 H       -10.9180642584        4.3810418129       -2.8932982867
 H        -8.1867701428        3.2654390284       -1.7088823959
 H        -9.4427258953        2.2255159506       -2.4590841540
 H       -13.1996289017        0.1551567711       -0.0070355664
 H       -12.6034124432        0.6292425586        1.5522245711
 H       -11.1828523698       -1.1708795050        1.6593029580
 H       -11.3931527117       -1.7577053748       -0.0462641772
 H       -14.5946390591       -4.2634383887        4.1078068241
 H       -14.6174598736       -2.6502562213        3.6056645280
 H       -14.1214254493       -1.6276866570        5.7236765947
 H       -13.3139508101       -3.2146976399        6.0730155697
 H       -14.5481093695       -0.9869480070        8.1616709900
 H       -15.4631580810       -1.4214430091        9.5228135678
 H       -15.4900424338        0.4518169587        9.0414947844
 H       -17.9936780979       -0.7590841760        5.4493837264
 H       -17.2378073291       -2.1695422882        4.6617359063
 H       -16.1598809380       -0.8676549692        5.2896009622
 H       -18.6613748876       -2.3310440599        7.6302758120
 H       -17.4681930098       -3.4692340500        8.1681037011
 H       -18.1260083947       -3.5937966326        6.6554401615
 H       -12.4801461198       -5.8132987710        2.3469483202
 H       -13.2414028675       -5.1962200008        0.8379853495
 H       -14.1024028888       -5.0846437139        2.3776081864
 H       -10.6294892079       -3.5364958562        0.8926726400
 H       -10.5598628673       -5.0200302741        1.9644889520
 H       -10.2327544560       -3.4686693465        2.6393071652
 H       -12.1753982889        4.1353756320        0.0517501233
 H       -11.9033323934        3.1621653634        1.4891307350
 H       -13.2496604733        2.5827130036        0.5136362794
 H       -12.6080011528        3.1115587371       -2.0520837723
 H       -12.8598296850        1.5130368645       -1.6431914333
 H       -11.5117355695        1.7272024062       -2.6897903905
 H       -10.5540786916        9.0548262315       -2.4099028159
 H        -9.6134569879        8.1646895701       -1.2729817295
 H       -11.0699201363        7.5786275193       -1.3373003392
 H       -11.9696396435        7.6101018494       -4.1663362486
 H       -12.2442862540        6.1661314364       -3.2397001825
 H       -11.2591004928        6.0775924617       -4.7157054217
 H        -4.3581163475        7.1180604706       -6.8675851447
 H        -4.7075218707        5.3720341150       -6.8272764814
 H        -3.4889154987        6.0311703293       -5.8657873819
 H        -5.4768370850        4.7199081721       -3.2028129784
 H        -4.0250575600        4.8468670505       -4.1954378773
 H        -5.2511415966        4.0157818070       -4.8390005045
 H        -4.1271796109       12.5353977904       -1.3381416678
 H        -4.6929292133       11.5034018038       -2.6815703970
 H        -2.9997301810       11.2247417012       -1.9578740098
 H        -4.6232329156       10.0564159216        1.1685956556
 H        -3.7324744925       11.5233369418        0.9422276594
 H        -3.1073372180       10.0405384310        0.3719213780
 Na       -7.3684795792        8.0563003343       -1.7531655222
