117

 C        -6.0859322490       11.7695590178        0.5110535983
 C        -5.9575165062       10.7343945731       -0.5771875560
 O        -7.0193936844       10.2074091542       -0.9736123439
 C        -4.5119824492       10.5857268912       -1.2455442636
 C        -4.3559671380        9.0727169961       -1.6585187666
 O        -5.0555606932        8.2369838875       -1.1154495482
 C        -3.3230357532        8.5008403739       -2.6797316502
 C        -3.7595678705        7.0275444231       -3.0195835317
 C        -5.0039174457        7.0997825558       -4.0445053783
 O        -5.5180762133        8.1644364978       -4.1766885088
 C        -5.4696414079        5.9161502919       -4.9525485799
 C        -7.0312293841        5.9357763773       -5.1773664053
 O        -7.7917207217        5.1152116727       -4.7221797841
 C        -7.5370892885        7.2021828897       -5.8905377269
 C        -9.0215385508        7.7980640661       -5.6097224690
 C        -9.1573112138        7.5813405789       -4.1046600229
 O        -8.4013064983        8.3500435989       -3.4782210304
 C       -10.1813802734        6.6292886866       -3.4578582567
 C        -9.3758219969        5.5006631195       -2.6326833383
 O        -8.4593456935        5.7002882123       -1.8654960845
 C        -9.6279520975        3.9315156398       -2.8913666706
 C        -9.3629245427        2.9610831614       -1.7707999440
 C       -10.1629173933        3.1008947960       -0.3921879003
 O        -9.7228275225        3.6431369808        0.5891584157
 C       -11.4497537350        2.2356933294       -0.3809137112
 C       -11.1143333000        0.7890004578        0.2411474247
 O       -10.0646856778        0.2389830068        0.1139771893
 C       -12.2620087960        0.0054831465        0.7730236212
 C       -11.6574800033       -1.3402740552        1.3851730694
 C       -12.7794628782       -2.3454320482        1.6314404301
 O       -13.8517787872       -2.0736542047        1.2472620181
 C       -12.5805121461       -3.6276388688        2.7224552219
 C       -12.6162531548       -2.9641987087        4.0745844651
 O       -11.6526777419       -2.3691389814        4.5592628699
 C       -13.9980668470       -3.2135757491        4.8625176275
 C       -14.2904406146       -2.3331453809        6.0729602782
 C       -15.5245699014       -2.7261819986        6.7442709542
 O       -15.5627069506       -3.4734493302        7.6913270315
 C       -16.7491599499       -1.8779730066        6.2891267222
 C       -16.5871391045       -0.5352996565        7.1044771173
 O       -17.3513379070        0.3930069034        6.9641374202
 C       -15.8270746363       -0.7362572387        8.4195402573
 C       -16.7579426630       -1.6529829567        4.7304551588
 C       -18.2091693066       -2.4045549523        6.6699644408
 C       -13.5676400966       -4.7564864845        2.5163806624
 C       -11.2092411662       -4.1740200039        2.6576256327
 C       -12.5571609186        3.0125921532        0.5070916578
 C       -12.1346557881        1.9651605122       -1.7606697488
 C       -11.1355516224        7.4833921060       -2.4833790416
 C       -10.9935973254        6.0708943975       -4.6253447460
 C        -4.6817178747        6.1987265050       -6.3301079605
 C        -5.1383414279        4.4050609341       -4.4596069929
 C        -4.5698364793       11.7140788341       -2.2706060484
 C        -3.3075780946       10.8821441855       -0.2608617181
 H        -5.1562334531       11.9143485369        1.0022541610
 H        -7.0680116519       11.5919997829        0.9890880003
 H        -6.2852384442       12.7662726956        0.0197357024
 H        -2.2883452717        8.5996867047       -2.3456582190
 H        -3.5094117322        9.0456549811       -3.6505360503
 H        -3.9290056228        6.2659282689       -2.2022835423
 H        -2.9145358015        6.5323500683       -3.5437291698
 H        -7.4254180544        7.1386911388       -7.0559981917
 H        -6.8704486590        8.0007112627       -5.6949318901
 H        -9.8785627054        7.2524199826       -6.0187959217
 H        -9.0368537102        8.8920499036       -5.7361466986
 H        -8.9087723444        3.7435130836       -3.6900484836
 H       -10.6814540813        3.8174342780       -3.2595722880
 H        -8.3595824744        2.9434924385       -1.4312322865
 H        -9.5072148304        1.9300978327       -2.2543822485
 H       -12.9162074620       -0.4630872839       -0.0134544157
 H       -12.8643959249        0.3944181746        1.4961376557
 H       -11.2323655555       -1.1276192974        2.3423973477
 H       -11.0166035647       -1.8729812068        0.6505108795
 H       -14.0247067087       -4.2612378890        5.2139820648
 H       -14.7645006858       -3.2093947438        4.1390816402
 H       -14.4823422889       -1.3070702629        5.8815771140
 H       -13.4894177230       -2.4361126538        6.8391509140
 H       -14.7531907894       -0.9341413555        8.2255472442
 H       -16.2976439597       -1.6221024546        8.8357443158
 H       -15.8556695672        0.1792155672        9.0871154138
 H       -17.4866327466       -0.8121845140        4.4525720848
 H       -16.9809002229       -2.5970767179        4.2821074456
 H       -15.7116376321       -1.2475898989        4.3927155162
 H       -19.0333447150       -1.7664651313        6.1432593209
 H       -18.3983443467       -2.5361759412        7.6821031132
 H       -18.4637980944       -3.2606435106        6.2166577829
 H       -13.6562711236       -5.3527710490        3.4245472255
 H       -13.2331405369       -5.2899337205        1.5710049626
 H       -14.5288221823       -4.3353730779        2.3325008781
 H       -11.0887964934       -4.9245665001        1.7704202704
 H       -10.9639126043       -4.7498581423        3.5210980916
 H       -10.3072991475       -3.4717916392        2.4969108796
 H       -12.8921897495        3.8882651203       -0.0461173913
 H       -11.9643924406        3.3361853257        1.3611188604
 H       -13.5459420938        2.5334819444        0.8150181795
 H       -12.2027185379        2.7907676343       -2.4202644221
 H       -13.1123541824        1.7755232730       -1.6149392815
 H       -11.6020965811        1.1730761651       -2.2255944894
 H       -11.7984335779        8.1109803054       -3.1243927365
 H       -10.6405676044        8.0756618891       -1.6360587847
 H       -11.6767557073        6.7488217803       -1.9087018358
 H       -11.4665565562        6.9075456533       -5.1319825178
 H       -11.7298992138        5.3743643561       -4.2664674649
 H       -10.3890094724        5.4742179773       -5.3301492479
 H        -4.7816806407        7.2539752799       -6.4558282826
 H        -4.9777361154        5.5390433525       -7.1943919342
 H        -3.6309303306        6.1449174051       -6.2014825531
 H        -4.2669795014        3.9302303435       -4.9508881687
 H        -6.0323782426        3.6867838144       -4.4415553650
 H        -4.8139136402        4.5559039487       -3.4026082763
 H        -4.8918418937       12.6532226005       -1.8115461865
 H        -5.3213547283       11.4315086261       -3.0771741769
 H        -3.5128067059       11.8637311250       -2.6364719128
 H        -3.2154184086       10.1731926522        0.5571337964
 H        -3.1621024174       11.9240585209        0.0839725411
 H        -2.3601799052       10.8135977537       -0.7634779775
 Na       -7.4248665032        8.0151152180       -1.4347850465
