117

 C        -5.9853669491       11.9018482466        0.6006305756
 C        -5.8317137814       10.7320500199       -0.4077267752
 O        -6.7267419080       10.0767016076       -0.8527423776
 C        -4.5173052309       10.5165674306       -1.2924494896
 C        -4.4305355515        8.9679256412       -1.7533875247
 O        -5.0371349022        8.1785419640       -1.0701181410
 C        -3.3153253557        8.3989022387       -2.7251819894
 C        -3.7491805381        7.0020274746       -3.1911301835
 C        -4.9748183915        7.0211550425       -4.0736338595
 O        -5.5019572654        8.1488827399       -4.1376350185
 C        -5.4601824714        5.9053942187       -4.9413210769
 C        -7.0236072070        6.0788033399       -5.1592565532
 O        -7.8523951532        5.3374357550       -4.6991315717
 C        -7.4210112074        7.2391449380       -6.0385984771
 C        -8.8086217103        7.7508503661       -5.6868971375
 C        -9.2223292025        7.6026123751       -4.0124865518
 O        -8.5303778132        8.2670568355       -3.2938555338
 C       -10.2153684492        6.4783464160       -3.5664269280
 C        -9.2714954855        5.3858913664       -2.7290935269
 O        -8.5374123061        5.7562883252       -1.8458970224
 C        -9.6734727388        3.9115277692       -3.0193950174
 C        -9.3042488198        3.1762833007       -1.7423310667
 C       -10.2681314830        3.1406876609       -0.5453053504
 O        -9.8795664180        3.6777815207        0.4907776758
 C       -11.5604390213        2.2487864617       -0.3762242192
 C       -11.0388644146        0.7331299960        0.1677757967
 O        -9.9445537753        0.3177778248       -0.0148193594
 C       -12.1735714684       -0.0864986279        0.9475633244
 C       -11.5951048230       -1.3577122762        1.5947751536
 C       -12.7770132512       -2.3590839792        1.7264260507
 O       -13.8669386328       -2.1821278826        1.1471623850
 C       -12.5667182240       -3.5150326967        2.7083950877
 C       -12.6051411013       -2.8680856278        4.1792748340
 O       -11.7523340118       -2.1674568693        4.6249104706
 C       -13.8296648776       -3.3958920122        5.0639979520
 C       -14.1929796759       -2.3278187620        6.0881737294
 C       -15.5885684374       -2.6930142713        6.7180594126
 O       -15.7669241771       -3.3663315103        7.7038845100
 C       -16.8308103734       -1.8102862644        6.1896793994
 C       -16.8165887667       -0.5197575242        7.1615828928
 O       -17.2760382922        0.5186970575        6.6302655017
 C       -16.0433150978       -0.4238876152        8.5276874791
 C       -16.7620319109       -1.4655088349        4.7450842111
 C       -18.2325651838       -2.4087206987        6.6460701102
 C       -13.6581481128       -4.6264264656        2.6610993653
 C       -11.1317739617       -4.2373013350        2.5701578083
 C       -12.6081575943        2.8740590637        0.6659714262
 C       -12.2295301647        1.8096524213       -1.7114482012
 C       -11.1774720411        7.2037242524       -2.5592569579
 C       -10.9534815774        5.7253726051       -4.6171913656
 C        -4.7472782253        6.1717768706       -6.2812134561
 C        -4.9571135758        4.5073943473       -4.3991152643
 C        -4.7241442291       11.5778102097       -2.4445285518
 C        -3.1023980989       10.8750137167       -0.5090442632
 H        -5.0574077221       12.2598981865        0.9895360924
 H        -6.8354323618       11.5554899869        1.2333202217
 H        -6.4906545075       12.7259576140        0.1161657578
 H        -2.4357318127        8.2288243887       -2.0975789710
 H        -3.1230428836        9.0132101460       -3.4654098601
 H        -3.8876141025        6.3519606597       -2.4100053069
 H        -2.9116808940        6.4738758490       -3.7590628851
 H        -7.3337285011        7.1326685118       -7.1236524195
 H        -6.7625095943        8.0271957936       -5.9023808166
 H        -9.6387571569        7.0427717563       -6.0620291577
 H        -8.9350358914        8.7969485518       -5.9465223636
 H        -9.0227352496        3.6303481871       -3.8910760018
 H       -10.7376789698        3.8905259072       -3.2167212258
 H        -8.3170105973        3.5770275157       -1.2571532726
 H        -9.0381156577        2.1304800601       -2.0184763904
 H       -13.1055494681       -0.5389935347        0.3356422946
 H       -12.5628578483        0.3943239675        1.8297258184
 H       -11.2819196120       -1.1125746378        2.6150787190
 H       -10.8307774053       -1.7594798882        0.9592286769
 H       -13.6617487168       -4.2771214335        5.6910747862
 H       -14.6656274172       -3.6301921785        4.4614364655
 H       -14.1755039652       -1.2405191376        5.8606197064
 H       -13.5127592264       -2.4845536942        6.9063172657
 H       -14.9727527991       -0.0160172011        8.2877485877
 H       -16.0954728900       -1.4031884203        9.0740961728
 H       -16.4800328938        0.4229729502        9.1434325231
 H       -17.4632929189       -0.7149428153        4.4857062046
 H       -16.9218743698       -2.4797767251        4.2313297990
 H       -15.7531865688       -1.0841329127        4.4985221305
 H       -19.0699226267       -1.9002572931        6.4792730352
 H       -18.0801207849       -2.6021383034        7.6725415086
 H       -18.5183195349       -3.3458235293        6.2135841789
 H       -13.6059609321       -5.2817836346        3.5753550346
 H       -13.5767207557       -5.1296134843        1.7195754644
 H       -14.6112366787       -4.1387997299        2.6745689066
 H       -11.0663187365       -4.8941621386        1.6976747140
 H       -10.9580426981       -4.8816307141        3.3988980063
 H       -10.2565279871       -3.5969560517        2.4336460112
 H       -12.8919070895        3.9041132242        0.3897886628
 H       -11.9832467607        2.8815980492        1.6094198598
 H       -13.6195116233        2.4267858065        0.7430026805
 H       -12.1513021590        2.6341691481       -2.3850395274
 H       -13.3181367678        1.8808280459       -1.4982798020
 H       -11.8468207895        0.9155725687       -2.0908411478
 H       -11.9345555907        7.8255402866       -3.0826059888
 H       -10.6599772096        7.7098401110       -1.7258376957
 H       -11.7363139214        6.3388980728       -2.0226641505
 H       -11.3267030073        6.4268238874       -5.3251597286
 H       -11.7788432622        5.2372247103       -4.1201815070
 H       -10.4067641341        4.9147730980       -5.1380141251
 H        -4.7936139147        7.1794601405       -6.4113660381
 H        -5.0527209542        5.5863363149       -7.0712725860
 H        -3.6271316621        5.9898175846       -6.1553896535
 H        -4.6159064204        3.7777806968       -5.0387640846
 H        -5.8758088543        4.1554954176       -3.8383988453
 H        -4.2373708965        4.6886799000       -3.6392566196
 H        -4.6999979645       12.6225400571       -2.0012519973
 H        -5.7222720491       11.4484185153       -3.0141408915
 H        -3.8224118892       11.4984389413       -3.0434736706
 H        -2.8519144108       10.3494250295        0.3888321171
 H        -3.1210594709       11.8886805031       -0.3603591401
 H        -2.1339178721       10.8425137160       -1.0811820917
 Na       -7.4621623678        8.0767101178       -1.4417071073
