117

 C        -4.1702718323        0.1880888160        9.4379674272
 C        -4.5894257482        1.6872233377        9.2582776303
 O        -3.7066901922        2.4993539724        9.3569782910
 C        -6.0598662439        1.9751588711        9.0649025368
 C        -6.2431488866        1.9453928860        7.4790349406
 O        -6.9493384224        1.0975861656        6.9466909798
 C        -5.7135496819        3.1343754299        6.6478443883
 C        -6.3228367017        3.3597987094        5.2309540225
 C        -6.2144358096        4.7819053642        4.7107624408
 O        -6.5901204102        5.7216334019        5.3654117789
 C        -5.4593660305        4.9972213370        3.3219812309
 C        -5.8154321954        3.9167123246        2.2584968217
 O        -4.9786481042        3.1114960942        1.8413199203
 C        -7.1220850003        3.8991200384        1.4301177875
 C        -6.8890579675        3.5712555627       -0.0363882858
 C        -8.0198138802        3.0065561208       -0.7649981000
 O        -8.5084578347        3.7750558244       -1.5945144144
 C        -8.3923861348        1.5237199089       -0.5746348456
 C        -9.6570536176        1.5542793466        0.3674639454
 O        -9.5441443431        1.9218706767        1.5079480551
 C       -11.0579681279        1.0778035072       -0.0859402948
 C       -12.1138313890        1.8882812626        0.6430346602
 C       -12.2957277991        3.2785504651        0.1050841185
 O       -11.4113165545        3.9328704029       -0.3748981677
 C       -13.7494099990        3.8425147674       -0.0418534366
 C       -13.8893984907        3.7617971705       -1.7557354580
 O       -13.0416784705        3.3406749072       -2.4547400438
 C       -15.2797880736        3.9859721037       -2.2123533328
 C       -15.5612373896        4.3686649981       -3.6460872055
 C       -15.3471780295        5.9378317183       -3.8461056895
 O       -15.2257024077        6.7117031797       -2.9143035753
 C       -15.0941516770        6.2538912480       -5.3554868988
 C       -13.6039030709        5.6217499687       -5.6910060088
 O       -13.5743642363        4.4577375977       -5.9771644020
 C       -12.3377318821        6.5244731290       -5.5445487347
 C       -11.1491393696        5.9651746834       -6.3353525325
 C       -10.3020118708        4.9721017243       -5.4029262338
 O       -10.1877072824        5.1463603169       -4.2195716372
 C        -9.6688015998        3.7376006086       -6.0682824233
 C       -10.6695017607        2.7011176517       -5.7066525169
 O       -10.9345344110        2.4449076249       -4.5419418906
 C       -11.6861406265        2.1881211339       -6.7544782404
 C        -9.4660667415        3.8351475657       -7.5496119351
 C        -8.3065404711        3.4363383656       -5.4413006635
 C       -16.0957649555        5.6139322515       -6.3668481458
 C       -15.1423544782        7.7624998342       -5.4890174242
 C       -14.8413199921        2.8753477890        0.5167075909
 C       -13.8576688738        5.3767709770        0.3480899750
 C        -8.6438983620        0.8336120703       -1.9380232656
 C        -7.2635763850        0.6614766195        0.1176155837
 C        -5.9681909163        6.3511497477        2.7894255248
 C        -3.9807593128        4.9759377722        3.6212981072
 C        -7.0384197942        0.8347434426        9.5046209576
 C        -6.3102642987        3.4195174373        9.5726129417
 H        -3.1877907001        0.2820747729        9.8875972477
 H        -4.0330253431       -0.2835514361        8.4661339923
 H        -4.8198773159       -0.3707388918       10.1613600766
 H        -4.6167420457        3.0083948752        6.6180187848
 H        -5.8581141669        3.9552581979        7.2516129556
 H        -7.3189196414        2.9941058652        5.3033340810
 H        -5.6479124391        2.8630467975        4.5231094520
 H        -7.5756730817        4.8488553694        1.4471179214
 H        -7.7561052980        3.1795153725        1.8943662943
 H        -6.0694662899        2.9033188726       -0.1791728461
 H        -6.5441727066        4.4292543061       -0.5964428626
 H       -11.1514552271        0.0290814828        0.2375060968
 H       -11.3849463537        1.1917696836       -1.1372923973
 H       -11.8386587892        2.0467105969        1.6782840495
 H       -13.0151315616        1.2008569905        0.5824437963
 H       -15.7083974882        4.7485785023       -1.5187632660
 H       -15.8617025296        3.0758843489       -1.9339562384
 H       -16.6069675503        4.0911615454       -4.0053710180
 H       -14.9397370975        3.8841219741       -4.4172014074
 H       -12.0545938344        6.4501821557       -4.5040105499
 H       -12.4014477806        7.5368899924       -5.7728489562
 H       -10.4679249744        6.8554661500       -6.3049633975
 H       -11.4795559870        5.6733527262       -7.2766449202
 H       -11.3352371310        1.8343527144       -7.7474359278
 H       -12.2550202227        3.0257259151       -7.2651602483
 H       -12.4284437990        1.6832434828       -6.2485509106
 H        -9.1667381726        4.8226192103       -7.7444594937
 H       -10.3232350386        3.6645804786       -8.1394684919
 H        -8.7296714014        3.0745113467       -7.7996723445
 H        -8.4835533097        2.9466185038       -4.4966473280
 H        -7.5704997020        4.2621095506       -5.2947106260
 H        -7.8195994088        2.7740202765       -6.0594481226
 H       -15.8970108428        4.5710561205       -6.5228740773
 H       -15.9941276344        6.1386853690       -7.3176867777
 H       -17.0550961004        5.7594102649       -6.0310751278
 H       -15.1684917927        8.0210403719       -6.5658245355
 H       -14.4157609784        8.3110702095       -5.0212851571
 H       -16.0855563517        8.1312546503       -5.1019994259
 H       -14.4748572648        2.6522563199        1.4921470493
 H       -14.8647023134        1.9602576510        0.0287668312
 H       -15.8428190089        3.2080654271        0.7342579567
 H       -13.3535410520        5.5231255764        1.2791934357
 H       -14.7992855220        5.8371285633        0.4247876912
 H       -13.1784428603        5.8359795243       -0.3548066446
 H        -8.9070731997       -0.2692743905       -1.7625792201
 H        -7.8648203162        0.7061002867       -2.5985248978
 H        -9.4419101233        1.3057577986       -2.5425844420
 H        -7.1163418417        0.9679707695        1.1567850292
 H        -6.2752904385        0.6299424238       -0.2742061662
 H        -7.6885014894       -0.3120977425        0.1526141869
 H        -5.3122003662        7.1682284384        2.8433765479
 H        -6.8618341651        6.5990707609        3.4628072151
 H        -6.3018588819        6.3963868859        1.7473405881
 H        -3.5823360240        5.9466935317        3.8106577025
 H        -3.3997988355        4.5779926965        2.8050034112
 H        -3.7705484151        4.3200196461        4.4301520494
 H        -6.8343538501       -0.1287989165        9.0382037649
 H        -8.1244022367        1.1246146826        9.2792255398
 H        -6.9566698030        0.6538674533       10.5743853215
 H        -7.1309861064        3.4152634190       10.2205912794
 H        -6.6294639481        4.1557331919        8.8314095562
 H        -5.4538059514        3.8167094664       10.0813550202
 Na      -10.6886220012        3.6571438135       -2.6656271386
