117

 C        -5.1532145930       11.7703063793        0.6207946525
 C        -5.4462866493       10.5957263972       -0.3266287791
 O        -6.4470931849        9.9872465951       -0.1592981715
 C        -4.4380452377       10.2165941159       -1.6252676166
 C        -4.2653981776        8.5466050398       -1.6464464281
 O        -5.0815616634        7.7588716243       -1.1625070695
 C        -3.0376752528        8.0146753784       -2.3883160352
 C        -3.1720708578        7.0949823153       -3.5853528305
 C        -4.7839035390        7.2078418756       -3.9871328547
 O        -5.5228802412        8.1899429119       -3.7424533482
 C        -5.3037427932        6.0020182223       -5.0417068555
 C        -6.8573184169        6.2905996949       -5.2443084880
 O        -7.6976587930        5.4956742387       -4.8358887579
 C        -7.5235369455        7.5590610094       -5.8627102017
 C        -8.9979065034        7.4927236500       -5.7188063948
 C        -9.3653516175        7.3928940323       -4.1715649455
 O        -8.8981132962        8.2819120749       -3.5181036463
 C       -10.2045838952        6.1310385238       -3.6446072556
 C        -9.4110938250        5.2380211132       -2.7415971996
 O        -8.5467123551        5.6344116758       -1.9809553249
 C        -9.5579529238        3.7347159062       -2.8547411936
 C        -9.3359194585        3.0566858597       -1.4697987556
 C       -10.4822152691        3.3086584280       -0.3921565838
 O       -10.5632334667        4.3525416484        0.2753240719
 C       -11.5596564019        2.1689506627       -0.1412621022
 C       -11.1015079708        0.7367734889        0.4377666251
 O       -10.1523134985        0.1985812372       -0.1051398029
 C       -11.8804539096       -0.0812167126        1.4242181277
 C       -11.3484548507       -1.5309252544        1.7861880585
 C       -12.5303567401       -2.5319627073        1.8253856756
 O       -13.5349149583       -2.2390819789        1.1133240822
 C       -12.5523455448       -3.5639310689        2.9980452007
 C       -12.7911759768       -2.7354560182        4.3922317110
 O       -12.1049205044       -1.7371838938        4.5300883211
 C       -13.6292879060       -3.3284266639        5.5175105086
 C       -14.2969236455       -2.0779784148        6.2639125304
 C       -15.6881438180       -2.2843500563        6.8545603455
 O       -15.9070444090       -3.2362495644        7.6046932774
 C       -16.8133962263       -1.4296458494        6.2960842239
 C       -16.9132005185        0.0502573860        6.8556509854
 O       -16.9801860044        0.9391970170        6.0596663480
 C       -17.4041857511        0.2280054359        8.2899977207
 C       -16.5167532335       -1.4284666854        4.7667960571
 C       -18.2169307613       -1.9906457642        6.6100060728
 C       -13.7237916277       -4.5771720714        2.8159363379
 C       -11.2328579989       -4.2558388997        3.2714332137
 C       -12.7863330001        2.6105088668        0.6890405941
 C       -12.0458187169        1.7913151946       -1.5585253033
 C       -11.4701894217        6.7902609405       -3.0190382976
 C       -10.7833732180        5.1812644542       -4.8207942556
 C        -4.5477622700        6.2626112244       -6.2799278720
 C        -4.9146353355        4.6957959568       -4.3271341207
 C        -5.2979301615       10.7334681307       -2.8360386039
 C        -3.0976379963       10.9365095572       -1.4535340456
 H        -4.3696155731       12.2957282202        0.0050374681
 H        -4.7843981562       11.5572566366        1.6698487724
 H        -6.0705885958       12.3315152593        0.6251873410
 H        -2.4105786211        7.5105954583       -1.6689410966
 H        -2.5969607012        8.9075638328       -2.6959568306
 H        -2.8849831485        6.0939583806       -3.4457524914
 H        -2.5415458541        7.5039882026       -4.4950704579
 H        -7.3616212386        7.7683166187       -6.8900408527
 H        -7.0070831875        8.4444354230       -5.4954030829
 H        -9.3435089121        6.5588923883       -6.2986396043
 H        -9.5489497329        8.3084163280       -6.2478652314
 H        -8.7121792657        3.4535216735       -3.5351876395
 H       -10.5671506196        3.5978436409       -3.1938493467
 H        -8.3354379208        3.5422162501       -1.0906301701
 H        -9.0877031523        2.0236791254       -1.6349543934
 H       -12.8574767581       -0.1697653313        0.9076615199
 H       -11.9360775771        0.4001292176        2.4598793098
 H       -10.6671835443       -1.4032051072        2.6355678611
 H       -10.7228827196       -1.6616327107        0.9553460664
 H       -13.2177789650       -3.9596482451        6.2569538069
 H       -14.2608644139       -3.8177394616        4.8241808722
 H       -13.9819443771       -1.1632818563        5.7332738543
 H       -13.8292204970       -1.8951422011        7.2141370953
 H       -17.5519143260        1.2893480985        8.5692705421
 H       -16.9096621539       -0.5057066747        8.9540973173
 H       -18.3650230503       -0.1976251508        8.3777194710
 H       -17.5043118932       -1.2005406672        4.3226139647
 H       -16.1557480469       -2.5118268325        4.3980414287
 H       -15.7062876285       -0.7712855194        4.4237384773
 H       -18.9294332145       -1.4500881542        6.1047026169
 H       -18.4696853277       -1.8161575187        7.5984652586
 H       -18.3906160466       -3.0662039862        6.5912521177
 H       -13.5597830365       -5.3887876067        3.5831065052
 H       -13.6896949456       -5.0967256942        1.8913121650
 H       -14.6546113031       -3.9989986454        2.9355358072
 H       -10.5675727371       -4.4817814147        2.4299756897
 H       -11.3178211469       -5.3334623818        3.7334853437
 H       -10.5737040492       -3.6173191745        3.8863348524
 H       -13.5514914839        3.2303305104        0.1895893989
 H       -12.5402461809        3.0364294611        1.6882926830
 H       -13.2947595256        1.6759939842        0.8236978293
 H       -12.7823781906        2.4276362223       -1.8631119726
 H       -12.2480506103        0.7350037534       -1.5060212253
 H       -11.2349244272        1.8423716536       -2.2135565242
 H       -12.1992831334        7.2479831922       -3.6581999709
 H       -11.0392382311        7.4585149380       -2.3148483675
 H       -12.2249816623        6.0067322301       -2.6172383459
 H       -11.2147868701        5.8174526321       -5.5791317564
 H       -11.6226980779        4.5433105348       -4.5006305623
 H        -9.9604875415        4.5827337559       -5.2400174980
 H        -5.0246029050        7.0435964793       -6.8531504108
 H        -4.6675533490        5.4158518908       -6.8683965353
 H        -3.4222074048        6.3148424496       -6.1580563507
 H        -5.6826961389        3.8637120352       -4.4762492961
 H        -4.7651090191        4.9124936990       -3.3031753398
 H        -4.0165597542        4.2825194240       -4.8881761803
 H        -5.6461052485       11.7916123987       -2.5873942032
 H        -6.1516375971       10.0666659240       -2.9602022581
 H        -4.7092534450       10.6085036453       -3.7428424754
 H        -2.8772029520       10.9192849367       -0.3853152503
 H        -3.1951353165       11.9384984105       -1.7369746461
 H        -2.1065819823       10.5031560406       -1.7897396149
 Na       -7.4131615330        7.9363543247       -1.6784437935
