117

 C        -5.0588359657       11.6273645957        0.5476013334
 C        -5.4216614296       10.4258309814       -0.3274994075
 O        -6.4491631315        9.7595880304       -0.2767321191
 C        -4.4370295590       10.1262780828       -1.5368159967
 C        -4.2179109761        8.6164238218       -1.7047808232
 O        -4.9859916008        7.7802708090       -1.1840514417
 C        -2.9458278702        7.9082462163       -2.3086031923
 C        -3.2822831297        7.2266818495       -3.6813682807
 C        -4.7088539260        7.1632869869       -4.0161181211
 O        -5.3742217346        8.0688434208       -3.6593096657
 C        -5.3012098481        6.0564741630       -4.9805447178
 C        -6.8166856894        6.2550395314       -5.1068706766
 O        -7.6328505814        5.3285579025       -4.9218523962
 C        -7.3783122914        7.5455515914       -5.7936577420
 C        -8.8574086926        7.4647172888       -5.7483696384
 C        -9.3135945495        7.2293642105       -4.2181494145
 O        -8.9719079469        8.0473903747       -3.4209352065
 C       -10.2266178937        6.1254050351       -3.7432845580
 C        -9.2920485920        5.2679348080       -2.7402376655
 O        -8.5198279033        5.8874941606       -1.9965827433
 C        -9.4875011028        3.6605106854       -2.6953000682
 C        -9.3187833345        3.0587061439       -1.2036991104
 C       -10.5743392522        3.3388404745       -0.3137311986
 O       -10.7109195707        4.4305667813        0.1521792134
 C       -11.6017944500        2.0810528821       -0.0965241293
 C       -11.0864801674        0.7060412942        0.4757836129
 O       -10.0805164095        0.2850164385       -0.1655313276
 C       -11.7422253083       -0.0047829617        1.6649106410
 C       -11.3808770938       -1.4861308073        1.7725896903
 C       -12.5286459200       -2.4492966458        1.9653228075
 O       -13.4852312461       -2.5757248407        1.2910845285
 C       -12.5157108555       -3.5486032357        3.2068860915
 C       -12.7973256618       -2.5477407035        4.3435575018
 O       -12.1145494077       -1.5513111617        4.4942793474
 C       -13.8407389707       -3.0265669187        5.3928416330
 C       -14.2325598091       -1.9761046634        6.3957255631
 C       -15.6070899063       -2.3466804050        6.9670786212
 O       -15.9468689714       -3.2156253881        7.7392417625
 C       -16.8576401295       -1.3490408702        6.2675487096
 C       -17.0456820386        0.1793245800        6.6780308290
 O       -16.7376939270        1.0625628810        5.9734000572
 C       -17.6031306928        0.3368132650        8.1179197157
 C       -16.6492850214       -1.3416825407        4.6807668087
 C       -18.2343182314       -2.0496678611        6.4689276191
 C       -13.7094673542       -4.4797537663        2.8661454504
 C       -11.2351438273       -4.2849225437        3.4633403660
 C       -12.8238892775        2.6765804003        0.7251673732
 C       -12.1633432213        1.5849087112       -1.6042013024
 C       -11.5082827205        6.7632849053       -3.0505076890
 C       -10.7949657073        5.2079790955       -4.9312354567
 C        -4.6394224115        6.3998636741       -6.3349931988
 C        -5.0742037513        4.5979877005       -4.4800325650
 C        -5.4484381446       10.6876406739       -2.6358504894
 C        -3.1877183168       10.9128289276       -1.7203473535
 H        -4.5794398944       12.3911369701       -0.1181097732
 H        -4.2554762758       11.2798811956        1.2389968880
 H        -5.9753741324       11.9376771998        1.0345743448
 H        -2.8230468151        7.1050638951       -1.7232900384
 H        -1.9859769541        8.5379796737       -2.3103293656
 H        -2.9176496281        6.1962097382       -3.6932435637
 H        -2.8341213859        7.7384786513       -4.4763228478
 H        -7.0872233301        7.8259028546       -6.7194482713
 H        -6.9367556208        8.4334722621       -5.2582010972
 H        -9.2053067561        6.6644800767       -6.3693335505
 H        -9.3744495807        8.3638994500       -6.2430932417
 H        -8.6407567947        3.3068328119       -3.3200766697
 H       -10.5382532740        3.5234075983       -3.0425211213
 H        -8.3458916055        3.4537809903       -0.8010721178
 H        -9.1041503695        1.9454178470       -1.3746285834
 H       -12.8513437870        0.0503582180        1.3820663661
 H       -11.4807089911        0.4910712355        2.7384257740
 H       -10.5819299647       -1.5465971330        2.5275066211
 H       -10.8827568889       -1.7054329657        0.8507548354
 H       -13.3618702553       -3.7668132667        5.9745226669
 H       -14.6407333972       -3.5565347494        4.7980612248
 H       -14.2491747115       -0.9822458419        5.8926079973
 H       -13.4976297807       -1.6976204032        7.1195660196
 H       -17.5302342150        1.4244640613        8.3670989746
 H       -17.0903793963       -0.4857471168        8.7204515805
 H       -18.6623719183       -0.0170409646        8.3023870508
 H       -17.6408891577       -1.0381844090        4.1743777332
 H       -16.3078511076       -2.2736121663        4.2988289824
 H       -15.8064961254       -0.6728520367        4.4175955474
 H       -19.0853090568       -1.4127490084        6.0191451445
 H       -18.5785841013       -2.1786108461        7.4425239531
 H       -18.1640824053       -2.9808234374        6.1278973534
 H       -13.8790087387       -5.2150333555        3.6192981108
 H       -13.3760946362       -5.0787842129        2.0408368339
 H       -14.5701257002       -3.8043529456        2.5853088596
 H       -10.9171571004       -4.8806566400        2.6574612325
 H       -11.3646574198       -5.1041025483        4.2357630944
 H       -10.4086465803       -3.6635522350        3.7237444314
 H       -13.2755893410        3.6249912177        0.2404891916
 H       -12.5472598136        2.9220237282        1.7831401911
 H       -13.6228746636        1.8999368950        0.7665069303
 H       -12.4024202178        2.4286275496       -2.1988589537
 H       -12.6544733129        0.6971762079       -1.5029700552
 H       -11.1607073534        1.2381952895       -1.9844299932
 H       -12.3324977380        7.2313223073       -3.6132023866
 H       -11.0847307175        7.4259498465       -2.2938769188
 H       -12.1261010295        5.9359831293       -2.7091020433
 H       -10.8983477926        5.7118138347       -5.9016126711
 H       -11.8042308123        4.8279471419       -4.7066170477
 H       -10.1282097459        4.4005443544       -5.0194488489
 H        -5.0393544300        7.3260017523       -6.7578988640
 H        -4.9936729516        5.6656940296       -7.0856534430
 H        -3.6644496852        6.3499378847       -6.2774474930
 H        -5.4771219771        3.8589361172       -5.1551274199
 H        -5.3246819488        4.4808330556       -3.4766108602
 H        -4.0396977245        4.4821316548       -4.6539530507
 H        -5.6827240355       11.7796484122       -2.4346928543
 H        -6.3341700527       10.0775976039       -2.5595080179
 H        -5.0086773681       10.3658973308       -3.6555646772
 H        -2.4637100409       11.0132054770       -0.9299766053
 H        -3.5084253435       11.9218509316       -2.0758558032
 H        -2.6381320604       10.4079998155       -2.4345646081
 Na       -7.3728251899        7.9775345711       -1.8034818173
