117

 C        -4.8147557992       10.4779049577        0.9613361111
 C        -5.5141653234       10.0481514705       -0.4348845663
 O        -6.6726876816        9.6631588711       -0.5399753720
 C        -4.6466240972        9.9345458004       -1.6824533453
 C        -4.1694838416        8.2266999434       -1.7547576570
 O        -4.7644809477        7.3646314339       -1.2008473241
 C        -3.0261594159        7.6943881241       -2.6064494604
 C        -3.3053621671        7.5167506803       -4.0743393426
 C        -4.7891029459        6.9685087949       -4.3120697500
 O        -5.7831298431        7.2055312821       -3.5746562335
 C        -5.0396462582        5.8981038024       -5.5865925865
 C        -6.5135307835        5.8685169621       -5.5064271329
 O        -7.0926615958        4.9935885239       -4.9178758458
 C        -7.3554323331        7.0384602651       -6.0178511869
 C        -8.8086904768        7.3112125457       -5.6395369703
 C        -9.2300610898        7.1048199782       -4.1377196929
 O        -9.0266984576        8.0537119071       -3.3784216127
 C        -9.9523090750        5.8684987644       -3.5150697492
 C        -9.1070253173        5.1364312859       -2.4403477484
 O        -8.3421185878        5.7405652762       -1.7466070317
 C        -9.4578663294        3.6690701215       -2.2261220337
 C        -9.6495924664        3.1649886013       -0.7887257645
 C       -11.0884356292        3.3073064530       -0.3223893602
 O       -11.7094197073        4.3773979035       -0.2266895639
 C       -11.8530829136        2.0319893432        0.0164452966
 C       -10.8364862786        0.9043403357        0.6074479958
 O        -9.7461444025        0.6062555232        0.3037351133
 C       -11.7759597569       -0.0229896345        1.4809615575
 C       -11.0075608978       -1.3735671508        1.7405895903
 C       -12.0828622181       -2.3571529654        2.1710008429
 O       -12.9665716454       -2.4800203786        1.2575192600
 C       -12.1767861770       -3.0684755023        3.4875073239
 C       -12.7819055714       -2.0277951330        4.5486907970
 O       -12.2719407926       -0.9465495932        4.6447788242
 C       -13.9228588904       -2.5107975302        5.4585537022
 C       -14.4997565747       -1.3463329599        6.2419484703
 C       -15.9856721457       -1.4839993274        6.8305981757
 O       -16.2144546391       -1.8532776500        7.9269158039
 C       -17.2637838748       -1.0163977695        5.8904662406
 C       -17.2813698030        0.3445507724        6.4854489332
 O       -16.1987058468        1.0244324332        6.3857643120
 C       -18.3564109166        0.9000291358        7.3874104997
 C       -16.9257498745       -1.3363100533        4.3896347639
 C       -18.6321578186       -1.6297234463        6.1583069852
 C       -13.1548880852       -4.3025255359        3.0938676056
 C       -10.9101549208       -3.6470332773        4.1745649584
 C       -13.0261811137        2.5290192084        0.8892137449
 C       -12.2961215838        1.4345921403       -1.3774044057
 C       -11.1719927175        6.4301443373       -2.7017745225
 C       -10.5332495859        5.0089413669       -4.5960431454
 C        -4.3652685154        6.3811399755       -6.8885482254
 C        -4.5950774936        4.4917554408       -5.2076327159
 C        -5.5994995991       10.1332662263       -2.8642817675
 C        -3.4047480868       10.8046179993       -1.7766615068
 H        -5.4326921039       10.4031704334        1.8049994747
 H        -4.4566429331       11.5101548304        0.8448445278
 H        -4.1071158886        9.6119914229        0.8586393532
 H        -2.5901497311        6.7437400145       -2.0513491526
 H        -2.2067571995        8.3723696366       -2.6587560862
 H        -2.5407675038        6.9334988144       -4.5482063610
 H        -3.3353714045        8.5335541730       -4.3198239159
 H        -7.3764854484        6.9408897847       -7.2275102303
 H        -6.7646733754        7.8769708328       -5.8706168141
 H        -9.5229660587        6.7242632878       -6.3306396334
 H        -9.1455961141        8.3250609567       -5.9255014934
 H        -8.6111316125        3.1415906345       -2.7441406755
 H       -10.4017144009        3.4193910998       -2.8105263277
 H        -8.8829563570        3.5336506729       -0.0644546740
 H        -9.4225035181        2.0838581226       -0.9464070376
 H       -12.7507865839       -0.3583674739        0.9416970131
 H       -12.0217750382        0.5158643433        2.4334760397
 H       -10.2548386212       -1.1435868997        2.4350192638
 H       -10.4713648528       -1.9225675024        0.9417908203
 H       -13.4226868131       -3.3952265324        5.9159783589
 H       -14.7085337983       -2.9597017754        4.8995040873
 H       -14.6057545674       -0.4840395870        5.6486455833
 H       -13.8839587991       -0.9829832495        7.1145730698
 H       -17.8657512274        1.8748064755        7.7836270866
 H       -18.6292807837        0.3193967783        8.3193536022
 H       -19.3316830634        1.1088767970        6.8121630135
 H       -17.8576744884       -1.2007428899        3.8663341657
 H       -16.6694340414       -2.4168223437        4.1451405210
 H       -16.2241796981       -0.6491451650        3.8727872070
 H       -19.3124416773       -1.1919699434        5.5237072827
 H       -19.0796832320       -1.5725941948        7.1584545481
 H       -18.6925582285       -2.7403497887        5.7655806185
 H       -13.5059681730       -4.8204836431        3.9959641410
 H       -12.4462403755       -5.0349568165        2.5666211582
 H       -13.8807816577       -4.0220947155        2.3673726596
 H       -10.0134452805       -3.9457860114        3.6521800933
 H       -11.2302618007       -4.3889123588        4.8470903708
 H       -10.5584546869       -2.9236935810        4.8913363895
 H       -13.3735992273        3.3432261630        0.2752684277
 H       -12.9109527687        2.8148880682        1.9742695761
 H       -13.7745496315        1.6774516747        0.9122269526
 H       -13.3139207297        1.9090488785       -1.5083864227
 H       -12.5618118651        0.4178210487       -0.9454429036
 H       -11.7358827563        1.5159421856       -2.2463903503
 H       -11.9905254930        6.7332458864       -3.4086946841
 H       -10.9620055165        7.3401891991       -2.0556252794
 H       -11.5848301137        5.5947517331       -2.1057959235
 H       -10.6001991776        5.5689126437       -5.5277945837
 H       -11.4926019640        4.7400711079       -4.2276038901
 H        -9.9392619516        4.0864893945       -4.7836881849
 H        -4.7034413267        7.2629926473       -7.2764787378
 H        -4.7101302673        5.7012196037       -7.6143725353
 H        -3.1995650849        6.4448832714       -6.8689991307
 H        -5.0585948551        3.7628372153       -5.8070644278
 H        -4.9318167711        4.4058639142       -4.1848887524
 H        -3.5499944717        4.3240885651       -5.1797453758
 H        -5.7651943936       11.2326078952       -3.0250746352
 H        -6.6388219070        9.6228584333       -2.7021563976
 H        -5.0328094155        9.7884784916       -3.7643268527
 H        -3.2138666124       10.9146222495       -0.7494882821
 H        -3.4122672562       11.7902210888       -2.1579655766
 H        -2.6216875690       10.2713106049       -2.3498485856
 Na       -7.4792231134        7.6534557855       -1.5962636475
