117

 C        -4.0462259499        0.1949177822        9.4038708549
 C        -4.5514238331        1.7203973160        9.2788170274
 O        -3.7984156437        2.6496403428        9.2128201630
 C        -6.0944080787        2.0675253444        8.9481113184
 C        -6.3585217185        2.1697756050        7.4690986132
 O        -6.8638365226        1.2910411675        6.8167058633
 C        -5.6119553410        3.3234450281        6.5851805863
 C        -6.2277235858        3.3278200172        5.1537714033
 C        -6.1851316195        4.8133571356        4.6991578370
 O        -6.5771074973        5.7103358331        5.4160764503
 C        -5.5800193807        5.0905132211        3.2974548124
 C        -5.7921401177        3.9571946977        2.3041478689
 O        -4.9104360416        3.1163549246        2.1082216379
 C        -7.1957249214        3.8217491361        1.5517038805
 C        -6.7718587694        3.5745081588        0.0494357678
 C        -7.8918175060        2.8707629232       -0.8524505115
 O        -8.5380419537        3.4284125318       -1.7168117442
 C        -8.4630848410        1.3525756479       -0.5749750921
 C        -9.6749494382        1.4785021276        0.3668655540
 O        -9.5141113032        1.8273584373        1.5265995825
 C       -11.0545119559        1.0552866426       -0.1146552592
 C       -12.1209546018        1.8539479549        0.8060562499
 C       -12.3287425979        3.2337280358        0.1883572318
 O       -11.3809735763        3.9038551751       -0.2540654547
 C       -13.7163483741        3.6859456700       -0.1037295023
 C       -13.9473125846        3.6977829917       -1.6675379006
 O       -12.9993720021        3.4604213531       -2.4101824792
 C       -15.3956625668        3.9495305630       -2.0730034927
 C       -15.5230140995        4.3296074036       -3.5492135356
 C       -15.2347621861        5.7355178126       -3.9179522233
 O       -15.1517421738        6.5521818117       -3.0513194928
 C       -15.0441899661        6.2410562102       -5.4480145252
 C       -13.6518955075        5.6759264521       -5.7442318484
 O       -13.5180414433        4.5386150157       -6.1021756937
 C       -12.4483473623        6.5887191422       -5.4924950767
 C       -11.1688218146        6.0693034897       -6.2659506386
 C       -10.3047217182        5.0707718621       -5.4818578841
 O       -10.2637104006        5.3021367454       -4.2562586169
 C        -9.7727257680        3.7322306058       -6.1686491983
 C       -10.8736906386        2.6876821786       -5.6746515094
 O       -10.8930452729        2.3623506025       -4.5224914219
 C       -11.8061218783        1.9447377430       -6.6916345883
 C        -9.5118878715        3.9439787873       -7.7085854992
 C        -8.4231955290        3.2740255107       -5.4225215225
 C       -16.1484864554        5.5514644012       -6.3195024740
 C       -15.0105808643        7.8048832095       -5.5448341516
 C       -14.9585403100        3.0331569547        0.6571776608
 C       -13.8627904177        5.1724040300        0.3645241799
 C        -8.6814956076        0.8205648422       -2.0201018777
 C        -7.3792996028        0.5401434059        0.1261598262
 C        -5.9057998919        6.4545582208        2.6038253151
 C        -4.0178020340        5.0466771328        3.6107588975
 C        -6.9737059975        1.0401984639        9.6007526878
 C        -6.2403312314        3.6182887236        9.5527245162
 H        -3.2074179677        0.1802570338       10.1266029622
 H        -3.6432322189       -0.1507499790        8.3794804779
 H        -4.8243438277       -0.3842679576        9.8481436238
 H        -4.5309275450        3.0878301508        6.6825591599
 H        -5.7592306141        4.2995187256        7.0779413524
 H        -7.2042081083        2.9809950647        5.3786251591
 H        -5.7345389931        2.7402239361        4.4246920650
 H        -7.7905175629        4.7099185905        1.6494152146
 H        -7.7173172504        2.9722530350        1.9395477441
 H        -5.8690291723        2.9813263250        0.0360481543
 H        -6.4437772530        4.5167290211       -0.5079899390
 H       -11.1050922220       -0.0022216415        0.0410316486
 H       -11.2649788454        1.3190648504       -1.1779863447
 H       -11.5958548599        2.0070909527        1.7147107533
 H       -12.9933484112        1.2109790115        0.9840115373
 H       -15.7978085922        4.7422598984       -1.4425377775
 H       -16.0986579953        3.0309568811       -1.8191658541
 H       -16.5552644739        4.3124230886       -3.8919365724
 H       -15.0604555917        3.6710948443       -4.3056378236
 H       -12.1347303986        6.6282319619       -4.4422722005
 H       -12.5915929646        7.6065554989       -5.8063167884
 H       -10.5059608952        6.9191069749       -6.4366469775
 H       -11.5546903300        5.6085598562       -7.1334374843
 H       -11.2850427812        1.8323191027       -7.6423660162
 H       -12.5848179907        2.5037212113       -7.1743319995
 H       -12.3302261441        1.1232900943       -6.1742195170
 H        -8.7591851818        4.7789326198       -7.8305419726
 H       -10.4183177743        4.3219385699       -8.2768683344
 H        -9.1818230935        2.9667437908       -8.0893085728
 H        -8.5781529448        3.0394044160       -4.3518109085
 H        -7.6651939768        4.0106012557       -5.5103472040
 H        -7.9238934866        2.3303932091       -5.9748840663
 H       -15.9079139368        4.5222752149       -6.4834297106
 H       -16.2259597118        6.0297569128       -7.2914711113
 H       -17.0560767863        5.6645351887       -5.8058379379
 H       -15.0019254449        8.1900349809       -6.5620891680
 H       -14.1895793760        8.3283408741       -4.9366950994
 H       -15.9630100084        8.1882732347       -5.1734096011
 H       -14.7684628779        2.7539447107        1.6785112155
 H       -15.3194289364        2.1303677812        0.1860383086
 H       -15.7447511274        3.7420915998        0.7916943401
 H       -13.5704841896        5.1503099274        1.4206669269
 H       -14.9048502078        5.5665430336        0.3261434109
 H       -13.1030841232        5.8598504737       -0.1380132935
 H        -9.0970358085       -0.1597937357       -2.0708643869
 H        -7.7004109868        0.6675920341       -2.5970544926
 H        -9.2810171995        1.4481370243       -2.6726050321
 H        -7.4360541239        0.6886229254        1.1951749500
 H        -6.4232240244        0.9041993659       -0.0860794862
 H        -7.4587840097       -0.5904269891       -0.0614503284
 H        -5.1276196733        7.2198537497        2.6211760063
 H        -6.8069268255        6.9465562293        3.0584585420
 H        -6.0887193377        6.3307052663        1.5508937904
 H        -3.6802167890        6.0247208385        3.8582380144
 H        -3.3765925258        4.7111388714        2.7800425141
 H        -3.7791763934        4.4454803409        4.4553987740
 H        -6.9475359604       -0.0305366909        9.2862098220
 H        -8.0342400994        1.3401930241        9.5236957198
 H        -6.6834481619        1.0826725677       10.6664223731
 H        -6.7642023381        3.6762420791       10.4720293700
 H        -6.7612628971        4.3171986397        8.8904482635
 H        -5.2530045898        3.9702548000        9.7295755359
 Na      -10.5682155453        3.6166904936       -2.5686714736
