117

 C        -5.2523305291        9.4037743394        1.0737856908
 C        -5.7563737218        9.7591643975       -0.4099895836
 O        -6.9687814614        9.6274307691       -0.5351284092
 C        -4.5840813427        9.6545631267       -1.5713324011
 C        -4.1443604548        8.0948246326       -1.7814339261
 O        -4.6525112775        7.1862503319       -1.1046375739
 C        -3.1732471009        7.6771537562       -2.8446488352
 C        -3.5076904666        7.4306730632       -4.3225415695
 C        -4.7969981399        6.5007064303       -4.4973857295
 O        -5.6028118561        6.4532815588       -3.6414534253
 C        -5.1563782643        5.6840517192       -5.8582072111
 C        -6.6761890712        5.5360285920       -6.2520028795
 O        -7.3169062456        4.5174532773       -6.0661882536
 C        -7.6521860400        6.7508729506       -6.6188717447
 C        -9.0512191735        6.5277243072       -5.8975809053
 C        -8.8685024621        6.7398708890       -4.3884422707
 O        -8.1844680937        7.6461123653       -3.9399140446
 C        -9.8561396545        5.9497233084       -3.3927747413
 C        -8.9501080191        5.0449892437       -2.2557819400
 O        -8.1074750108        5.5886229889       -1.5295723932
 C        -9.0247993573        3.5172740302       -1.9832906197
 C        -9.4978898847        3.1587180735       -0.5310744939
 C       -11.0032026429        3.2953933838       -0.3626375312
 O       -11.4698961772        4.2936041614       -0.8050932091
 C       -11.9598513840        2.0478976984        0.1580983526
 C       -11.3196351739        1.0786891996        1.1069430664
 O       -10.0698325077        1.0421904609        1.1768856361
 C       -12.1571542378       -0.1674646288        1.6573085701
 C       -11.1701364711       -1.3499646161        1.9955062073
 C       -11.7933121607       -2.7097664719        2.4825106744
 O       -12.1417592901       -3.5577827467        1.7455025509
 C       -11.9313956450       -2.9658520940        4.0372725146
 C       -12.8391566602       -1.8344914377        4.6783716891
 O       -12.3793518369       -0.6998996384        4.6280097242
 C       -14.2294257227       -2.0490866630        5.3775378852
 C       -14.7744994609       -0.7805984798        6.1612617078
 C       -16.2173685105       -0.9668592708        6.7148439009
 O       -16.4398998087       -1.6008900505        7.7320489470
 C       -17.4238010264       -0.3132708019        5.8944988565
 C       -17.6301261339        1.1900212663        6.0923878013
 O       -16.7597678446        2.0060495535        5.8645354494
 C       -19.0064336403        1.7230735893        6.5117771485
 C       -17.1061371211       -0.7444025110        4.4290861452
 C       -18.6556412906       -1.2601792650        6.3565775437
 C       -12.4951465563       -4.3675891511        4.2192932832
 C       -10.6909661406       -2.7310730439        4.9705855645
 C       -13.3622447693        2.7239319207        0.7309960762
 C       -12.1439685418        1.1537991455       -1.1389839515
 C       -10.3802767416        7.0640854888       -2.4413483206
 C       -10.9102145717        5.0133736618       -4.0116576576
 C        -4.4055975741        6.4800758380       -7.0316717861
 C        -4.5432906308        4.2684830658       -5.7137960629
 C        -5.3259685996       10.1512957235       -2.8603544511
 C        -3.4162659988       10.4846296944       -1.1214035910
 H        -4.2054303634        9.2104131235        1.0004805824
 H        -5.8717479737        8.5628561102        1.3123148459
 H        -5.4077855408       10.2766172108        1.7424710082
 H        -2.6915418449        6.7913723860       -2.4025432387
 H        -2.3716730161        8.4779046387       -2.8313832761
 H        -2.6057524351        6.9670002238       -4.9900695139
 H        -3.7423153414        8.4252105884       -4.7411087523
 H        -7.7403629601        6.5319361282       -7.6521066503
 H        -7.2479744764        7.7718412078       -6.3099266396
 H        -9.4061790007        5.5399779094       -6.0768727013
 H        -9.7144474663        7.2667242323       -6.2964258641
 H        -8.0756368206        3.1196455700       -2.2888571951
 H        -9.6907859443        2.9972634940       -2.6611315653
 H        -9.1066950155        3.8845417109        0.0967724572
 H        -9.0619961930        2.1963527145       -0.2241263613
 H       -12.9524496058       -0.3791582437        1.0308313330
 H       -12.6547290984        0.0141030972        2.5689149152
 H       -10.3113038681       -0.9709878834        2.5936739909
 H       -10.7480122738       -1.6493066945        0.9504040957
 H       -14.0323161011       -2.7747371489        6.1726808778
 H       -14.9625701140       -2.5638407046        4.6626504349
 H       -14.7948389939        0.1389976550        5.5485521275
 H       -14.1836515860       -0.7908531686        7.0530016891
 H       -18.8767869140        2.7829546551        6.7420149747
 H       -19.2674929928        1.4642833770        7.5260400489
 H       -19.7036676933        1.5724342390        5.6328124249
 H       -17.9105438198       -0.7401606034        3.6886641990
 H       -16.7100875220       -1.6737025451        4.5085099392
 H       -16.2993597614       -0.1331915442        4.0266315200
 H       -19.5942584612       -0.9464700481        5.9933502612
 H       -18.7317406145       -1.3921290490        7.5143339162
 H       -18.5304751098       -2.3367411156        5.8499569038
 H       -12.6345726333       -4.3005391224        5.2717010152
 H       -11.7646599569       -5.0966299671        3.8609965131
 H       -13.5004457139       -4.5486061426        3.7494067178
 H       -10.1838621416       -3.6830280563        4.9788296374
 H       -10.9352552784       -2.6135714319        5.9311103371
 H        -9.9971451161       -1.9663236547        4.6171333338
 H       -13.8925652414        3.3574847585       -0.0417884667
 H       -13.0317506950        3.4038593455        1.4920419728
 H       -14.1576704598        1.9451731764        1.0060520747
 H       -12.1654817350        0.0240348928       -0.8371557452
 H       -11.2904091773        1.1799309370       -1.9262427597
 H       -13.0411806252        1.5787620213       -1.6385078641
 H       -11.1037383405        7.6292388650       -3.0219973815
 H        -9.6560418355        7.8338810895       -2.1188943822
 H       -10.6247948243        6.7388689604       -1.5121921376
 H       -11.7433896290        5.5941298480       -4.4418967831
 H       -11.3822645259        4.4844628223       -3.1568409624
 H       -10.4549336450        4.3101340970       -4.6895185473
 H        -3.9970883822        7.3456941889       -6.6300103610
 H        -4.8832535762        6.6788177178       -8.0310196072
 H        -3.5053789989        5.8717415513       -7.4235823370
 H        -5.1785624406        3.5563805671       -6.0095913443
 H        -4.2867610189        3.8935286962       -4.7096774448
 H        -3.6682063795        4.3933433105       -6.2504445690
 H        -6.3824992433       10.2355614265       -2.5883025656
 H        -5.3154580137        9.4644664681       -3.7941322071
 H        -5.0079342838       11.1630634384       -3.1906206344
 H        -2.9758255559       10.1897041586       -0.1564077986
 H        -3.7737462539       11.5792001288       -1.2471244935
 H        -2.6527244164       10.3012250746       -1.8334675844
 Na       -6.9062037677        7.5884113649       -1.8574164289
