117

 C        -5.3191486857        9.3239159122        1.0887275639
 C        -5.5658495795        9.4461999712       -0.3497440188
 O        -6.7140914032        9.2083452481       -0.7113282683
 C        -4.4404966246        9.5792425476       -1.5174101463
 C        -4.1239307853        8.0416588573       -1.7867526071
 O        -4.6655642432        7.2038076136       -1.1059837778
 C        -3.1411577310        7.7164046679       -2.9485077907
 C        -3.7474714175        7.3927529649       -4.3553734950
 C        -4.9075755267        6.3320157673       -4.6115943251
 O        -5.7124339062        6.1050520937       -3.7034445962
 C        -5.0580870547        5.7072997789       -6.0039510677
 C        -6.6775768061        5.4911774607       -6.2775954360
 O        -6.9582682453        4.3290663842       -6.3739895442
 C        -7.6635328250        6.6009046810       -6.4183791065
 C        -8.9817038825        6.2077973698       -5.7075574609
 C        -8.8918377869        6.5530871347       -4.2446660251
 O        -8.1464751529        7.5354061387       -4.0700609342
 C        -9.7977993785        5.9482057615       -3.1718575464
 C        -8.9512232708        5.1424235966       -2.1009226131
 O        -8.0698131688        5.5961468218       -1.3978518296
 C        -9.1061764688        3.5238843109       -2.0745166826
 C        -9.4738917363        2.8569766960       -0.7432107491
 C       -10.9576349633        3.0940603238       -0.5022816633
 O       -11.4375669990        4.2045306017       -0.7395579074
 C       -11.9841196689        1.8438534774        0.0362308840
 C       -11.2104101064        0.9485860160        1.1352508033
 O       -10.2301149850        1.3629292894        1.7634147796
 C       -11.9486416536       -0.2862861023        1.6533481242
 C       -11.0152230291       -1.4725452196        2.0013993873
 C       -11.7131562259       -2.6018647536        2.7271142177
 O       -11.9503150556       -3.6325637312        2.1005200079
 C       -11.9444418658       -2.6722562292        4.2953416254
 C       -12.7689838011       -1.3913411782        4.9079391880
 O       -12.4321045441       -0.2703905135        4.6891210504
 C       -14.1227509097       -1.6935604316        5.5388774403
 C       -14.9432089273       -0.4575146879        6.0336440439
 C       -16.3772673895       -0.8339400553        6.6009884198
 O       -16.4360755072       -1.2341621559        7.7587820760
 C       -17.6886257305       -0.3791301713        5.7079298704
 C       -17.6254270543        1.1153142616        6.0012921024
 O       -16.5789835525        1.6613716322        5.8064039364
 C       -18.8819346282        1.8752366653        6.4121164084
 C       -17.5902166971       -0.4687189695        4.2059803501
 C       -18.8912643953       -1.1128988223        6.1741354369
 C       -12.7117590916       -3.9708560814        4.6730912588
 C       -10.5205351676       -2.6702255154        4.8179625284
 C       -13.1877848414        2.5706203610        0.5790621910
 C       -12.3136960812        1.1874569487       -1.3991758558
 C       -10.3532101970        7.1161024096       -2.1517076346
 C       -11.0529390013        5.2449261893       -3.8497787948
 C        -4.4880522685        6.4047333480       -7.1356220354
 C        -4.4049376159        4.2696083091       -5.9147545707
 C        -5.1248650521       10.1139304959       -2.7609342826
 C        -3.3587074489       10.6318339850       -1.0617622458
 H        -4.3794782049        9.8663079595        1.3984536565
 H        -5.2518715998        8.2029652039        1.0238683160
 H        -6.2317643046        9.5886409154        1.5631684665
 H        -2.7293798194        6.8145196747       -2.5634197943
 H        -2.3509582119        8.4532483346       -2.9884656141
 H        -3.0960573975        6.9431610805       -4.9479725631
 H        -3.9400460759        8.3369319533       -4.9121579678
 H        -7.7027349474        6.6590844782       -7.5103869767
 H        -7.1747648387        7.4508983457       -5.8925010011
 H        -9.2184844640        5.1404109018       -6.0624385188
 H        -9.7318313660        6.9643442891       -6.1402015340
 H        -8.0068672267        3.3114435860       -2.2113472480
 H        -9.5956375250        2.9557330428       -2.8789774070
 H        -8.7579866520        3.3141954515        0.0600820060
 H        -9.3199846989        1.8002698389       -0.8197604722
 H       -12.8135126909       -0.5729564045        0.9879508732
 H       -12.6099684849       -0.0122603212        2.5321699068
 H       -10.2906546236       -1.2128890765        2.7518451109
 H       -10.5842946528       -1.7338159689        1.1306049429
 H       -14.1106069104       -2.4988854456        6.3282673878
 H       -14.6452575537       -2.0621966163        4.6761211798
 H       -14.9607473732        0.2415841811        5.1915744204
 H       -14.5283971217       -0.0766031192        6.9713324672
 H       -18.7082361853        2.7769879552        6.9014757630
 H       -19.4557681162        1.3764961242        7.2022418359
 H       -19.3211892036        1.9990122659        5.4978180944
 H       -18.5638781364       -0.1308790038        3.8433022473
 H       -17.5233404701       -1.5299958756        3.8428872193
 H       -16.7963307498        0.1038984028        3.7275083610
 H       -19.7787421086       -0.9959951474        5.5161377152
 H       -19.1137682454       -0.7437072153        7.1425658348
 H       -18.6940293326       -2.0568725187        6.2347405100
 H       -12.9217253539       -4.0150715797        5.7687084047
 H       -11.9769350024       -4.6789055817        4.3547679238
 H       -13.6099453124       -4.0733269507        4.1217867319
 H        -9.7886822713       -3.3476276220        4.2863866584
 H       -10.6011929662       -3.1460864712        5.9115252082
 H       -10.1324899537       -1.6480998455        4.9104481811
 H       -13.5496799270        3.3142129075       -0.0947999187
 H       -13.1113864254        2.9421293783        1.6004617545
 H       -13.8970048333        1.8600203228        0.4628357871
 H       -12.2680247380        0.1652356913       -1.3052941185
 H       -11.6591361063        1.4648226838       -2.1795252126
 H       -13.3466695231        1.5210108233       -1.7602337521
 H       -10.9555960686        7.8547956439       -2.6294710532
 H        -9.7267280997        7.5755557397       -1.4518095371
 H       -10.8798663831        6.5038424594       -1.3136554300
 H       -11.5391852339        5.9320351396       -4.5002188635
 H       -11.7784473657        5.0190009674       -3.1011113048
 H       -10.7370798468        4.3236867327       -4.3450598306
 H        -4.6846977965        7.5547265194       -7.1830906435
 H        -4.8613528869        5.9871433005       -8.0378510601
 H        -3.5083827907        6.1738668954       -7.2320934564
 H        -4.4295412560        3.7773735748       -6.9858990256
 H        -5.2259088716        3.6719659646       -5.4756571022
 H        -3.4122766327        4.2195927112       -5.3520625083
 H        -5.9767468243        9.5864905573       -3.1536178694
 H        -4.4988772531       10.2283595158       -3.5534368124
 H        -5.3672989416       11.1396263771       -2.5750105532
 H        -2.9706501461       10.2977239638       -0.0982066699
 H        -3.9903381152       11.4308249384       -0.9913598837
 H        -2.4107716985       10.8507097239       -1.6228948757
 Na       -7.1890850818        7.5480183002       -2.2147981460
