117

 C        -5.1030859866        9.5724480403        1.1157586484
 C        -5.5691867739        9.2498323385       -0.3423500707
 O        -6.7410563937        9.0122149711       -0.5697721686
 C        -4.5409759394        9.3506075042       -1.5883644269
 C        -4.2952672486        7.8867947161       -2.0287100783
 O        -4.6370263417        6.9505830939       -1.3741274637
 C        -3.2168886136        7.5763839784       -3.2455741092
 C        -3.9768912066        7.4141387718       -4.6283927722
 C        -5.0187333719        6.3215586992       -4.6801030899
 O        -5.8607638711        6.0695854505       -3.7705459423
 C        -5.0349153100        5.5657628749       -5.9995803430
 C        -6.5215471799        4.9762858122       -6.2629674418
 O        -6.6110850816        3.8136715590       -6.6609716107
 C        -7.5687166387        6.0116538131       -6.2177165078
 C        -8.8429303079        5.6941798528       -5.3422756472
 C        -9.0860999883        6.5976535069       -4.1759870410
 O        -8.5592108352        7.6431846211       -3.9836516307
 C        -9.8977799596        5.9823966326       -2.8999677678
 C        -9.0434835642        4.9553552147       -2.1599821427
 O        -8.1311080141        5.3782868679       -1.4639562835
 C        -9.1345350383        3.4370743675       -2.3746628432
 C        -9.5257358213        2.5379614706       -1.2376693710
 C       -10.8741852478        2.9441545175       -0.6841259716
 O       -11.3342248700        4.0779098920       -0.6031672477
 C       -11.8203862327        1.8390010212       -0.1249318135
 C       -11.1989230246        1.0945216070        1.2848986785
 O       -10.3761550987        1.5579565920        1.9717765687
 C       -11.7740537637       -0.3392272918        1.4213603120
 C       -10.9638834499       -1.1919600335        2.4569288523
 C       -11.6974729689       -2.3522980508        3.0675225209
 O       -12.0612694976       -3.3315141905        2.3602199590
 C       -11.9188506569       -2.3222393742        4.6666418105
 C       -12.8076564303       -1.1393580596        4.9709704752
 O       -12.3923627377       -0.0372396054        4.7101841694
 C       -14.1292063235       -1.4266865098        5.6842505062
 C       -14.9949382239       -0.1271610678        5.5483028904
 C       -16.3710408686       -0.4955618386        6.2823861385
 O       -16.3481733845       -1.1471801599        7.3024421713
 C       -17.7810352291       -0.1737060482        5.5742043275
 C       -17.8375955834        1.4566325190        5.7328197274
 O       -16.7815340372        2.0696211767        5.6239084058
 C       -19.0688294174        2.1632198515        6.3296510292
 C       -17.7571072426       -0.3926298731        4.0401771145
 C       -19.0102520021       -0.7909503370        6.2613512562
 C       -12.3352141883       -3.7973729505        5.0121188499
 C       -10.5904327218       -2.0130402501        5.4302915719
 C       -13.2346941640        2.4045396355        0.3667035296
 C       -12.1964797171        0.7954843176       -1.2846946254
 C       -10.3352036223        7.1573844408       -2.0237005213
 C       -11.3106162676        5.3539429512       -3.5213181176
 C        -4.7885686292        6.5273975336       -7.2141681138
 C        -3.9885245035        4.5313516044       -5.9989540220
 C        -5.0680121945       10.3585502222       -2.5576820917
 C        -3.0945110972        9.8635517491       -1.0118976922
 H        -5.4380690089       10.5849660289        1.1472635669
 H        -4.0135077282        9.5641430548        1.1219064553
 H        -5.5927178221        8.9155673659        1.7843709705
 H        -2.6592868076        6.5864262515       -3.0970263335
 H        -2.4913968304        8.3211792443       -3.3759044440
 H        -3.3345449812        7.2215463395       -5.4595945986
 H        -4.5361880665        8.3520008300       -5.0478755226
 H        -7.9470362541        6.1350111908       -7.2823418731
 H        -7.0631400475        6.8646511258       -5.9449770543
 H        -8.8129761040        4.6606939841       -4.9793655406
 H        -9.5948919697        5.6617724234       -6.0842483893
 H        -8.1285776091        3.1143710786       -2.5112386164
 H        -9.6897331577        3.1352995560       -3.2467586016
 H        -8.7836883055        2.6546948896       -0.4731206844
 H        -9.5043341442        1.5449350052       -1.6247364672
 H       -11.7858509422       -0.7915158869        0.4618984897
 H       -12.7909156717       -0.3307972075        1.5715876266
 H       -10.5094922262       -0.5215498688        3.2579311024
 H       -10.1527764648       -1.6446823829        1.8389767912
 H       -14.1299884865       -1.6143845396        6.7694681296
 H       -14.5599407084       -2.2792606096        5.1109690520
 H       -15.0600645344        0.2982807947        4.5826033665
 H       -14.4741654571        0.6588515248        6.2061533537
 H       -18.9272966849        3.2678001395        6.4775197409
 H       -19.3244093981        1.7607421189        7.3609744907
 H       -19.8055144138        1.9370616590        5.5380578979
 H       -18.4243054830        0.1589682726        3.4860749653
 H       -18.0530091924       -1.4770185620        3.7931910544
 H       -16.7812628814       -0.2490659744        3.6830835496
 H       -19.7491413984        0.1371004489        6.2592957095
 H       -18.8055171816       -1.0859385720        7.3072697269
 H       -19.4379901395       -1.5777112687        5.7646163063
 H       -12.7094081727       -3.7319883611        6.0588053138
 H       -11.4986797923       -4.5326479814        4.9324985377
 H       -13.1880130176       -3.9312883894        4.4081565767
 H        -9.9436270466       -2.5370654103        4.8056404254
 H       -10.4952861991       -2.3026934076        6.5251196511
 H       -10.3563573294       -1.0105863119        5.3635267013
 H       -13.6366101968        2.8250653315       -0.5674313891
 H       -13.1407277948        3.1997989409        1.2095920375
 H       -13.9427083229        1.6467141988        0.7283914831
 H       -13.0885822412        0.1199949342       -1.2312486425
 H       -11.2007812491        0.2490530032       -1.4724145855
 H       -12.3183111753        1.2721267190       -2.3411773253
 H       -10.4794855565        8.0219934852       -2.6295052536
 H        -9.6972450505        7.4432511101       -1.1940053484
 H       -11.3372923409        6.9940168223       -1.4892420767
 H       -12.0265357882        6.1980812055       -3.5177303210
 H       -11.7680624479        4.5792247802       -2.9202423159
 H       -11.2639303998        4.9979326495       -4.5855857602
 H        -5.6299743880        6.2402967874       -8.0002490665
 H        -3.8792374339        6.4316664607       -7.7837247256
 H        -4.8300174697        7.5639437602       -6.9187700349
 H        -2.9706278468        4.9653777403       -5.8036956661
 H        -4.0336768516        3.9335204510       -6.8325047498
 H        -4.2172342767        3.8786734616       -5.2106426906
 H        -4.3219340025       10.5436317203       -3.4051487556
 H        -5.3550042775       11.2966887317       -2.1614139668
 H        -5.9964672913       10.0331556184       -3.1228371015
 H        -2.7013472429        8.8954545539       -0.6665804084
 H        -3.0524386299       10.6930788672       -0.3774757675
 H        -2.2898415449        9.9798449271       -1.8423080253
 Na       -6.7749772257        7.0236632990       -1.9695147111
