117

 C        -5.1524194049        9.8707389329        1.1537283835
 C        -5.3680221670        9.1675278941       -0.2421179488
 O        -6.5162898629        8.8294537350       -0.4561860217
 C        -4.2914231422        9.1157087459       -1.3464514474
 C        -4.1952101496        7.7043835783       -2.0118296631
 O        -4.6550465313        6.7111005180       -1.4433423801
 C        -3.3324377898        7.6565971223       -3.3473240111
 C        -4.0394333760        7.7634770637       -4.7234044933
 C        -4.9892259802        6.4638102166       -4.9188408156
 O        -5.7835065564        6.1984727055       -4.0783807212
 C        -5.0404359635        5.6553830530       -6.2030512778
 C        -6.4480024842        4.8063601009       -6.2761678712
 O        -6.5850454861        3.6234159258       -6.3962730088
 C        -7.7620772176        5.6495460557       -6.1386641460
 C        -8.8054206549        5.2534554409       -5.1110157744
 C        -9.0672635724        6.3211924365       -4.0815494308
 O        -8.4310403231        7.3661450083       -4.0602120006
 C       -10.0544488520        5.8570046012       -2.8834928690
 C        -9.3035129371        4.6891713534       -2.1342006672
 O        -8.3428874913        5.0153984839       -1.4606967121
 C        -9.4249456300        3.2982730679       -2.5803796355
 C        -9.4720249160        2.4006892116       -1.2596223999
 C       -10.8991360296        2.8703839743       -0.5222662078
 O       -11.1479265672        4.0706953467       -0.5969822427
 C       -11.9287872184        1.7851442883       -0.1991521776
 C       -11.2720737326        0.9793983127        1.0541246964
 O       -10.3423306759        1.6262330112        1.5514086440
 C       -11.5464800324       -0.4754249528        1.5398530755
 C       -10.6941782884       -0.9052003792        2.7548190399
 C       -11.4799708402       -2.1597469889        3.3520565716
 O       -12.1793588856       -2.7086122890        2.5518824732
 C       -11.6768604421       -2.1769309188        4.9632336654
 C       -12.7864165375       -1.0839950150        5.0641734502
 O       -12.4874043003        0.0178908927        4.6098801843
 C       -14.1667651245       -1.4060826372        5.5418253927
 C       -15.1077604056       -0.2105425422        5.4689050400
 C       -16.4585311965       -0.4261894899        6.1864652003
 O       -16.5414836571       -1.2144218711        7.1014579553
 C       -17.7553547203        0.1722781448        5.5942265620
 C       -17.9364329852        1.8368442500        5.6949194213
 O       -17.0604716541        2.5465251316        5.2518469464
 C       -19.2982598965        2.3991614307        6.1686763131
 C       -17.9418674183       -0.1609887025        4.0602141944
 C       -18.8986078072       -0.6807714292        6.3428003947
 C       -12.1278101162       -3.6130501216        5.3356043485
 C       -10.3824694931       -1.8829981999        5.7493227007
 C       -13.2737901844        2.5136074875        0.0331804441
 C       -12.0711553349        0.7255819307       -1.2823045094
 C       -10.2364418013        7.0272635058       -1.8333392358
 C       -11.4043079299        5.4479462477       -3.3658527402
 C        -4.8973178834        6.4410824439       -7.5048861190
 C        -3.8927407996        4.5524016824       -6.1721391915
 C        -4.9671796620       10.1772591195       -2.5511830675
 C        -2.8952162978        9.6114195943       -0.9145400448
 H        -5.7711952205       10.7780790770        1.0941300209
 H        -4.1401491762       10.1965798355        1.2615265487
 H        -5.4721187639        9.0394767645        1.8627980792
 H        -2.7442401734        6.7842748965       -3.4687264470
 H        -2.6511452819        8.5531756390       -3.3483030365
 H        -3.2154199671        8.0336240163       -5.4771684461
 H        -4.7419493408        8.4657292838       -4.8573114641
 H        -8.1851591944        5.5623854642       -7.1397401689
 H        -7.5869080208        6.8405683932       -6.0439331592
 H        -8.5431496184        4.2834443311       -4.6024794354
 H        -9.7815936503        4.9871012176       -5.6858105982
 H        -8.5520741296        3.0643476174       -3.2349094194
 H       -10.3997550466        3.1188372340       -3.0731232306
 H        -8.5732281961        2.6209574922       -0.6541331947
 H        -9.4723825817        1.3274713185       -1.6695896802
 H       -11.3745138693       -1.1149819870        0.6151686828
 H       -12.6821655040       -0.6093743054        1.7105661227
 H       -10.5021492272       -0.0821690466        3.3477995802
 H        -9.7308693049       -1.2195537607        2.3619943909
 H       -13.9836752097       -1.6944276401        6.6017581437
 H       -14.5582611862       -2.2616219286        4.9857567728
 H       -15.3007935144       -0.1544764978        4.3372505494
 H       -14.6811034317        0.7591439497        5.6173368360
 H       -19.2672746196        3.4699423661        6.1376890615
 H       -19.2486507119        2.0846201811        7.1586213009
 H       -20.1631244253        1.9810712844        5.6631298696
 H       -19.0209203201       -0.1701490839        3.7849867145
 H       -17.5187131714       -1.0483197674        3.7092336510
 H       -17.4884378832        0.6925359094        3.5114687730
 H       -19.7855305641       -0.9173685329        5.7553255087
 H       -19.0936054541       -0.2119142279        7.2215136157
 H       -18.3147541087       -1.5896046915        6.5891535591
 H       -12.6551465071       -3.7373535342        6.2439144941
 H       -11.1531583098       -4.0228416344        5.4331970635
 H       -12.7118038255       -4.0610918646        4.4974876318
 H        -9.6804530449       -2.6928179988        6.1215516875
 H       -10.8497500287       -1.3332608948        6.5121695670
 H        -9.8191118483       -1.0236622462        5.2291149675
 H       -13.8399525796        2.7734082290       -0.8120460819
 H       -12.9715016349        3.2978500547        0.6026836576
 H       -13.8461731170        2.0254603773        0.8011895071
 H       -13.1312879193        0.5179427523       -1.3693720123
 H       -11.4559491426       -0.1252199809       -1.1696764514
 H       -11.8892203077        1.0046388705       -2.2347686670
 H       -11.1012624885        7.6782326647       -2.1455396481
 H        -9.3600597151        7.7393281631       -1.8378258595
 H       -10.5543089752        6.8315256882       -0.8820782754
 H       -11.7797192339        6.3000218569       -3.9046595336
 H       -12.1019740380        5.2174666568       -2.5524555136
 H       -11.4183591881        4.6493126825       -4.0648297341
 H        -4.3570256553        6.0138388596       -8.2084516878
 H        -4.3114882070        7.3284689656       -7.2070798252
 H        -5.9028047323        6.8207944588       -7.8050323340
 H        -3.4205828137        4.4887559778       -5.1830837778
 H        -3.1740874256        4.7286751395       -7.0301754580
 H        -4.2848854323        3.5194331747       -6.5198444800
 H        -4.5031625441       11.1033896491       -2.6259356681
 H        -6.0146705446       10.4530329718       -2.3620658196
 H        -4.9236840145        9.8378996473       -3.5202985225
 H        -2.4871161115        9.1169027681       -0.0434365388
 H        -3.0575556046       10.7343823324       -0.7638459229
 H        -2.1924054716        9.4833930353       -1.6599531071
 Na       -6.9232352800        6.9183416436       -1.7756935822
