117

 C        -5.0982904742        9.9914148527        1.0751247957
 C        -5.3445726789        9.1037823849       -0.2273609857
 O        -6.3833359755        8.5162645401       -0.3958885177
 C        -4.2464702319        9.2021960918       -1.3089866300
 C        -4.1040370127        7.7223582262       -2.0637310478
 O        -4.5739632866        6.7232345067       -1.5916503272
 C        -3.2721458915        7.6224012334       -3.3888225590
 C        -4.1276571058        7.5948389236       -4.7801877859
 C        -5.1440069107        6.5234344643       -5.0099922495
 O        -5.8823270692        6.2272837252       -4.0464731818
 C        -5.0890709454        5.6548545227       -6.3797314328
 C        -6.5048927017        4.7867705782       -6.2358368001
 O        -6.5643728763        3.5581474410       -6.1621720042
 C        -7.8767679274        5.5952149392       -6.2828403352
 C        -8.7013159639        5.1129053937       -5.1123682756
 C        -9.0166656481        6.0992477493       -4.0407643595
 O        -8.3715294144        7.1009581995       -3.8975890194
 C       -10.0670039028        5.8032858115       -2.9273775854
 C        -9.2120766992        4.5300996047       -2.2322272779
 O        -8.3937100006        4.8047129323       -1.3582076887
 C        -9.4917252642        3.0572996313       -2.5965775084
 C        -9.5767352471        2.3358649067       -1.2943447315
 C       -10.9184267822        2.7730037789       -0.6974794407
 O       -11.0805137400        3.9475622632       -0.4572675061
 C       -11.8935423128        1.6453991005       -0.2407081862
 C       -11.1040481159        1.1705211932        0.9898053199
 O       -10.2210916255        1.7233657323        1.4663153506
 C       -11.4726711438       -0.2615599205        1.5174650689
 C       -10.6892444403       -0.7545531734        2.7064162055
 C       -11.4804623248       -1.8376805394        3.4763072593
 O       -12.1598672487       -2.6866062302        2.8328279257
 C       -11.5509504432       -1.9937283747        5.0100218284
 C       -12.7449453496       -0.9354988960        5.1729221058
 O       -12.5825724908        0.1350511641        4.6703509934
 C       -14.1908653670       -1.4113214391        5.5005643850
 C       -15.1597486413       -0.3369922169        5.2708875982
 C       -16.5239392038       -0.4106832251        6.1040101387
 O       -16.4893377843       -1.1552454325        7.0721760767
 C       -17.8899849271        0.2858611113        5.6044794251
 C       -18.1123904479        1.8617128137        5.6563859966
 O       -17.2150906052        2.5837208093        5.1319423963
 C       -19.2984967098        2.5797041379        6.1576914958
 C       -17.9694356919       -0.0431241613        4.0364768837
 C       -18.9851030481       -0.4680148814        6.3519588990
 C       -12.0835097864       -3.5123266011        5.4294107448
 C       -10.3037848371       -1.7266676054        5.8620236553
 C       -13.2200617677        2.3636772391        0.1234859671
 C       -12.1062329279        0.6791053612       -1.5094330222
 C       -10.1512354237        7.0443819151       -1.8246756013
 C       -11.5528262720        5.5294006284       -3.3105745725
 C        -4.9243658672        6.4442139383       -7.6923483334
 C        -3.8197265688        4.6610496544       -6.2451106795
 C        -4.7636482927       10.0492341380       -2.3622495801
 C        -2.8815418909        9.6291470829       -0.7478052045
 H        -5.7814620922       10.7803034873        0.8936376553
 H        -4.1283615898       10.5072030125        1.1407178699
 H        -5.3397912948        9.2610078169        1.8926901788
 H        -2.7093674350        6.5924907314       -3.3438958841
 H        -2.6027915858        8.4507372278       -3.5669049919
 H        -3.3958178182        7.5828788675       -5.6621371427
 H        -4.7024881114        8.5423038927       -4.8955954141
 H        -8.3184789992        5.5897469025       -7.3940811624
 H        -7.7612750809        6.6015197195       -6.0769043521
 H        -8.2093874913        4.2478749175       -4.6389785810
 H        -9.6471611347        4.6868341488       -5.3879253272
 H        -8.5415501056        2.7375621491       -3.0798519174
 H       -10.4164209139        2.8883471520       -3.2348848612
 H        -8.8415163140        2.8857313191       -0.7388421517
 H        -9.3613838284        1.1945486246       -1.3421862748
 H       -11.3628475577       -0.9444798645        0.6093779669
 H       -12.5895997287       -0.3217998342        1.7009065488
 H       -10.3533782579        0.1294691514        3.2826613956
 H        -9.6963346165       -1.2548633276        2.3440483377
 H       -14.1848972121       -1.7142827826        6.5052722213
 H       -14.3821720656       -2.2975963782        4.8721830816
 H       -15.1553954482       -0.1279021732        4.2276624903
 H       -14.6789871482        0.6301258578        5.6021165441
 H       -19.1383263651        3.6500535775        5.9302172375
 H       -19.4388607493        2.3136614944        7.1850588542
 H       -20.1417863630        2.1896866452        5.5565904406
 H       -18.9688415512       -0.0895079260        3.6521455676
 H       -17.3408044249       -0.8842647286        3.4881346248
 H       -17.5630286622        0.9272608021        3.6980475783
 H       -19.7334140980       -0.9077724809        5.5064666133
 H       -19.5212095238        0.2112539589        7.1053171994
 H       -18.4543231599       -1.2514265201        6.8403444459
 H       -12.4233622176       -3.4505762374        6.4461154828
 H       -11.1871660337       -4.1595205006        5.4422504003
 H       -12.8885355535       -3.8534134236        4.8068359698
 H        -9.8769277196       -2.7086492149        6.1688576901
 H       -10.6528786503       -1.1068360183        6.7788655991
 H        -9.4995337569       -1.1617833909        5.3574387234
 H       -13.7275063817        2.7394162016       -0.6977571286
 H       -12.9864182907        3.1196630877        0.9147819224
 H       -13.8252070286        1.7181275632        0.7438630406
 H       -12.9946966259        0.1550070913       -1.4323578721
 H       -11.3048606898        0.0768171538       -1.8055729603
 H       -12.4108090042        1.2033471158       -2.3541159656
 H       -11.1570350405        7.4733276738       -1.8177204062
 H        -9.4895151490        7.9460881354       -1.8717253523
 H       -10.3449891733        6.7047903153       -0.7719354303
 H       -11.8111144247        6.1562011858       -4.1635760398
 H       -12.2593394157        5.6505077459       -2.5288690911
 H       -11.6608192473        4.5295036851       -3.6898947563
 H        -3.9925458830        6.0070921354       -8.2231262521
 H        -4.6516154205        7.4460703452       -7.5304886067
 H        -5.8340257339        6.3623465614       -8.3095846020
 H        -4.0300855203        4.2614892532       -5.1774772782
 H        -2.9657337577        5.2929988050       -6.2305313627
 H        -3.5165881981        3.9410481002       -7.0032244526
 H        -4.8377732083       11.0970632704       -1.9592850855
 H        -5.7975713378        9.8848443841       -2.5068112938
 H        -4.2159442219       10.2210326647       -3.3173251314
 H        -2.7176369360        9.0232918629        0.1260844931
 H        -2.9833546534       10.6307442058       -0.4125311427
 H        -1.9955523565        9.5903281104       -1.4778313878
 Na       -7.1153073525        6.8983735571       -1.8000572734
