117

 C        -5.2244568890       10.0160857067        0.9782486332
 C        -5.2537674178        9.0140410759       -0.1617246142
 O        -6.2446952401        8.2479561211       -0.2305535530
 C        -4.1945774917        9.1505457448       -1.3146236569
 C        -4.0169194195        7.6810938986       -2.1788989598
 O        -4.5601649801        6.7081580198       -1.7196289024
 C        -3.2715931954        7.5988278524       -3.4747185940
 C        -4.0537765096        7.5768443329       -4.8321841108
 C        -5.1836799314        6.4545023172       -4.9706090303
 O        -6.0463349994        6.1396802185       -4.1481289758
 C        -5.1903379170        5.6047011899       -6.3039699936
 C        -6.4830276179        4.7978738318       -6.3462849980
 O        -6.3860852602        3.6620655086       -5.9460949810
 C        -7.8328643023        5.5178910447       -6.3623055595
 C        -8.7849823335        4.9954063838       -5.1556053957
 C        -9.0334119170        6.0449823038       -3.9200640700
 O        -8.2116355573        6.9236924001       -3.8315478636
 C       -10.0985121090        5.6696028655       -2.7896726733
 C        -9.3320141628        4.5394928945       -2.1808326757
 O        -8.3527900707        4.7658087083       -1.4450092628
 C        -9.4061873276        3.0225545347       -2.6267559539
 C        -9.6042109598        2.1807980294       -1.3859874355
 C       -10.8460512845        2.7698722537       -0.7773197422
 O       -11.0845150718        3.9308965588       -0.4325341949
 C       -11.8842665143        1.6541035382       -0.3047237145
 C       -10.9272131829        1.0708422191        0.8812042971
 O       -10.1126638572        1.8479853850        1.4113637404
 C       -11.4924130749       -0.2330534452        1.5474727106
 C       -10.7227321137       -0.7093293163        2.7816628246
 C       -11.3736036554       -1.8832247835        3.5237912027
 O       -12.1283048451       -2.6461996596        2.9348912885
 C       -11.5098952603       -1.8308784800        5.1486567070
 C       -12.7638479085       -0.8545166603        5.1359839981
 O       -12.6341280905        0.3189262858        4.9255229023
 C       -14.2457829840       -1.3142877978        5.5083526460
 C       -15.2867491185       -0.2043196599        5.1366102107
 C       -16.5227125506       -0.3873575440        5.9830742438
 O       -16.4196617248       -0.9725960028        7.0438914147
 C       -17.9688006020        0.3232590851        5.5352639035
 C       -18.0092106030        1.8767926619        5.6259638205
 O       -17.2192252411        2.5246418517        4.9982113330
 C       -19.3822999744        2.6289218104        6.2362016723
 C       -18.0286096486        0.0429770370        4.0095069974
 C       -19.3266200152       -0.2676525155        6.3147295784
 C       -12.0180465539       -3.2805967290        5.4874428001
 C       -10.2570419635       -1.3975244587        5.9356736388
 C       -13.2193527120        2.1144727537        0.2940721244
 C       -12.1910293024        0.6828083975       -1.4975246974
 C       -10.0418966416        6.8442211224       -1.9095603746
 C       -11.4762351195        5.4334064785       -3.3485696024
 C        -5.1406590540        6.4266508115       -7.6978995629
 C        -3.9299951203        4.7851265375       -6.1818606467
 C        -4.6043166288       10.2219329004       -2.3038828562
 C        -2.7542807691        9.5296060836       -0.7129450471
 H        -5.9613409412       10.7978410393        0.7342462434
 H        -4.2722147424       10.5782860822        1.0183081549
 H        -5.3639088708        9.3893638332        1.7788615755
 H        -2.8081740201        6.5643581085       -3.3941341508
 H        -2.5195427122        8.3732094781       -3.6352597227
 H        -3.3713923370        7.3252888266       -5.6057761352
 H        -4.4314054990        8.7240631526       -5.0479232978
 H        -8.3193906419        5.4897741184       -7.3427854899
 H        -7.7700921975        6.5668367759       -6.1998524589
 H        -8.2784429309        4.1942472625       -4.6714492863
 H        -9.6414145013        4.5295751447       -5.4842694898
 H        -8.4225047035        2.8193718032       -3.0621506715
 H       -10.2558560256        2.7579596576       -3.2683381477
 H        -8.7011274462        2.2959509497       -0.7684442304
 H        -9.8329750131        1.2034572627       -1.5378299849
 H       -11.6443228740       -1.0262109833        0.8184545606
 H       -12.4741023857        0.1117191215        1.7950965297
 H       -10.7267305522        0.2390108587        3.5236949095
 H        -9.6211121640       -0.8396856616        2.5453793422
 H       -14.2938327632       -1.6207645988        6.5396710262
 H       -14.4903865889       -2.1591318996        4.8739370828
 H       -15.4008820050       -0.1699879343        4.0875945467
 H       -14.8717218827        0.8511231775        5.2568780578
 H       -19.1940452639        3.6568269816        5.8847157866
 H       -19.7130561432        2.4276102884        7.3621766921
 H       -20.1644401443        2.2142066791        5.5740889805
 H       -19.0589318518        0.2571496829        3.6115157821
 H       -17.7893254083       -1.0544113780        3.7731828663
 H       -17.3237728317        0.6999388268        3.4577853342
 H       -19.9854776599       -0.5325093825        5.5228822961
 H       -19.7565129760        0.7050925574        6.7834432973
 H       -19.1471279951       -1.0730559287        7.0777432813
 H       -12.1541295715       -3.3140532067        6.6015545036
 H       -11.3221447754       -4.0743388490        5.1606375742
 H       -12.9711528235       -3.3841470646        5.0133614147
 H        -9.8162602191       -2.3628113270        5.9445517973
 H       -10.1994235790       -0.8401336005        6.9440713148
 H        -9.6221196025       -0.9054264271        5.2642441290
 H       -13.7683756512        2.6657860245       -0.5558266922
 H       -13.2742116600        2.6132023825        1.2931851654
 H       -13.8062288314        1.2311464117        0.4959250394
 H       -12.5906856088       -0.2695233775       -1.2534227343
 H       -11.3076427971        0.4272297685       -2.0685237895
 H       -13.0119978066        0.8883726876       -2.2758493127
 H       -10.9516733537        7.3485221227       -1.6766570515
 H        -9.3488542796        7.6111218467       -2.2132778404
 H        -9.9651212563        6.5502702218       -0.7910528515
 H       -11.7035510073        6.0110252210       -4.2358645347
 H       -12.2491109423        5.5549200513       -2.6099236219
 H       -11.5250794867        4.3737037733       -3.6853685978
 H        -4.0859282556        6.2208074148       -8.1507835002
 H        -5.1992014302        7.5304865617       -7.6468975116
 H        -5.8755987322        5.9582550755       -8.3322730344
 H        -4.2787198925        3.8396881885       -5.8434098790
 H        -3.3032248927        5.2301446791       -5.4153860470
 H        -3.2173871683        4.7638612919       -6.9535988184
 H        -5.4333896326       10.8785461673       -1.8578880697
 H        -5.1918135991        9.9285065743       -3.1725503530
 H        -3.8416670771       11.0256766812       -2.6056036371
 H        -2.5127373236        8.9507232776        0.2272132603
 H        -2.8438866416       10.5220012846       -0.3239750240
 H        -1.9360985555        9.5923588111       -1.5035511958
 Na       -7.2532401557        6.7850670099       -1.8797234097
