117

 C        -5.3566480841       10.0077082926        0.8979999991
 C        -5.2076613105        8.9228266747       -0.1711792690
 O        -6.0460423954        8.0188302279       -0.1870092780
 C        -4.1637257060        9.0187731987       -1.3719992154
 C        -4.0580992052        7.6767150663       -2.2241835133
 O        -4.6507742334        6.7225025892       -1.7778784238
 C        -3.2494593895        7.6156904161       -3.5441227852
 C        -4.1063528435        7.5680974604       -4.8064142707
 C        -5.1768732051        6.5194657103       -5.0075541899
 O        -5.9270352411        6.1559122342       -4.1738657128
 C        -5.1943047710        5.6324924016       -6.2287000433
 C        -6.4909063068        4.7705287150       -6.0143777734
 O        -6.3638992124        3.5881159734       -5.8288765742
 C        -7.8469009502        5.4368579436       -6.2439366780
 C        -8.8960121665        4.9594168882       -5.3027866949
 C        -8.9543463270        5.9017546685       -4.0280329768
 O        -8.2366851643        6.8937458178       -3.9468387448
 C        -9.9578548798        5.5871252147       -2.8942186970
 C        -9.1736292421        4.5284347868       -2.1869361271
 O        -8.2415280796        4.7753867589       -1.4598658066
 C        -9.2927234873        3.0644581141       -2.7243046869
 C        -9.6675789930        2.1807308576       -1.4734278844
 C       -10.8993350326        2.7331874095       -0.7355224628
 O       -10.9833320063        3.9109724007       -0.6506386847
 C       -11.9490059400        1.4965846791       -0.2513690476
 C       -11.1059353832        0.9696954080        0.9922986385
 O       -10.0557370526        1.6623137895        1.2968744746
 C       -11.4802965438       -0.2629385011        1.6908747950
 C       -10.6599214496       -0.5485793256        2.9668432562
 C       -11.5369487275       -1.7863592087        3.5759991412
 O       -11.9653071069       -2.6510054560        2.8879056421
 C       -11.6499750598       -1.7961794779        5.0956428753
 C       -12.8325199964       -0.5939822564        5.2977382278
 O       -12.5162873189        0.5887302380        5.1750383887
 C       -14.2723354564       -1.1518761732        5.4361653021
 C       -15.4570930291       -0.0794629373        5.0361438829
 C       -16.6743640028       -0.1975263359        6.0306155167
 O       -16.5945579818       -0.7845794560        7.0811307115
 C       -18.0944767083        0.3824995513        5.4277539399
 C       -18.0527269044        1.9501940464        5.4622538930
 O       -17.1446038799        2.5293033748        4.9899889763
 C       -19.1662975802        2.6641453562        6.1783600879
 C       -18.2366900540        0.0346848641        3.9921610716
 C       -19.2932553843       -0.3160357150        6.2160138816
 C       -11.8749624504       -3.1175607625        5.6900179074
 C       -10.3986707413       -1.1101243037        5.8257729269
 C       -13.1628989490        1.9346035391        0.4255947464
 C       -12.2570630306        0.6087265674       -1.3443992218
 C       -10.1083574350        6.8232541597       -1.7989198537
 C       -11.3716857981        5.2274337896       -3.4783939414
 C        -5.3383851087        6.6140672789       -7.7035512466
 C        -3.9760759201        4.6904012657       -6.1505850612
 C        -4.5109174776       10.3751346829       -2.2596233714
 C        -2.6738500910        9.2476131588       -0.8073272914
 H        -6.0822217076       10.7623720945        0.5775082526
 H        -4.4520370485       10.5429352230        0.9295569834
 H        -5.4557655907        9.4084647104        1.7826340761
 H        -2.6412368889        6.7994136175       -3.4079650674
 H        -2.6482105370        8.5299348204       -3.7743572879
 H        -3.5197285175        7.6220304851       -5.7375802763
 H        -4.5627543814        8.5523625032       -4.6578791554
 H        -8.1027031196        4.9857646930       -7.1122483787
 H        -8.0531874962        6.5221619714       -6.5592777324
 H        -8.7609927753        3.9337282468       -5.0835194867
 H        -9.8665281193        4.9247212492       -5.8213420173
 H        -8.3721914484        2.7560187890       -3.2003783715
 H       -10.1264404137        3.0005254828       -3.3451878873
 H        -8.8485666549        2.3209409568       -0.7731268696
 H        -9.7755712629        1.1272361479       -1.6106297878
 H       -11.2542686883       -1.0630744900        1.0278182252
 H       -12.5335296658       -0.2007301071        1.8292456917
 H       -10.5218647961        0.3450242556        3.5866743919
 H        -9.6601600181       -0.8504317369        2.7063449870
 H       -14.4199989859       -1.3288291537        6.5516973306
 H       -14.2568229872       -2.1149090969        4.9448343487
 H       -15.8076496440       -0.1349158818        3.9665236041
 H       -14.9836412356        0.8752910717        4.9386057954
 H       -18.9368203902        3.7345508004        6.0004694162
 H       -18.9798485654        2.2454433283        7.2032359981
 H       -20.1904690685        2.2999275117        5.8718325163
 H       -19.1542320751        0.5731423513        3.5702151060
 H       -18.4870736350       -0.9412384851        4.0202515395
 H       -17.4250009581        0.1893992511        3.2833613380
 H       -20.0208943456       -0.4430339269        5.5101240931
 H       -19.5531352970        0.3651850535        6.8687760523
 H       -19.0238878920       -1.2895810507        6.7155198663
 H       -11.8296981557       -2.9476279311        6.7833198975
 H       -11.0716327633       -3.7918121112        5.3730045031
 H       -12.8606280055       -3.5745399805        5.3330904920
 H        -9.5912437955       -1.8283974682        5.8548727679
 H       -10.6554888189       -0.8113946292        6.7747932428
 H       -10.0761306386       -0.2084047498        5.2858659238
 H       -13.6702583209        2.7328321126       -0.2319785545
 H       -13.0380317956        2.2462555758        1.4471353504
 H       -13.9162426268        1.0943139411        0.5361130776
 H       -12.2864679045       -0.5490176805       -1.1154230757
 H       -11.5638071074        0.5915619401       -2.2603642074
 H       -13.2898913873        0.6290386790       -1.7790330425
 H       -11.0846926625        7.1613707493       -1.4637444929
 H        -9.5658872754        7.7076892079       -2.1204342028
 H        -9.8883455439        6.5149030369       -0.8407498756
 H       -11.8618870482        5.9375915602       -4.1402672444
 H       -11.9535070237        5.1087177911       -2.5276250594
 H       -11.4614883312        4.2487829981       -3.9844348123
 H        -4.4815629830        6.9755566298       -8.0714696810
 H        -5.9643528191        7.5555898165       -7.4606335759
 H        -5.8108751348        5.9397640287       -8.4415218570
 H        -4.2121254059        3.8595859390       -6.6721413374
 H        -3.5911429291        4.4608573396       -5.1600655953
 H        -3.1668253560        5.2570602963       -6.5840147490
 H        -5.5674580953       10.6647057360       -2.3396405043
 H        -4.3238797415       10.3735900244       -3.3956384729
 H        -3.9819384615       11.2284108760       -1.8499689678
 H        -2.4076481683        8.6912038340        0.1329580201
 H        -2.7196069937       10.3319998691       -0.3866458779
 H        -1.9947890006        9.3089428735       -1.6041920228
 Na       -7.1686260604        6.6654832550       -1.8614839246
