117

 C        -5.3435946643        9.9731898061        0.7565722983
 C        -5.2224357212        8.8479482561       -0.2878066972
 O        -5.9269285469        7.8990293873       -0.1648594661
 C        -4.1154022239        9.0075428134       -1.3945837577
 C        -4.1818179717        7.7376039818       -2.2694506094
 O        -4.6503045543        6.6614131855       -1.9134355518
 C        -3.3169328254        7.7367716194       -3.5163071612
 C        -4.1432345565        7.8193719893       -4.8328065313
 C        -5.0934392847        6.5125031423       -4.8920574060
 O        -5.8010761458        6.2521839976       -3.9492140406
 C        -5.1892873320        5.6167270210       -6.2620107403
 C        -6.5414681057        4.6465884464       -6.0923613126
 O        -6.4073119803        3.5257761842       -5.6123098791
 C        -7.8966818064        5.3145530690       -6.3241064132
 C        -9.0879475936        5.0843890132       -5.3652784989
 C        -9.0741671052        5.9993998492       -4.1869966090
 O        -8.2695047732        6.9386967135       -4.1174792959
 C        -9.8736789368        5.5387003320       -2.9310194290
 C        -9.0075847860        4.4143801000       -2.2319705144
 O        -8.1401736179        4.7064192807       -1.4438374366
 C        -9.1927105984        2.9844669101       -2.6603947822
 C        -9.5942692566        2.0478165638       -1.5141833272
 C       -10.9746206510        2.5909390262       -0.8156746417
 O       -11.1291903743        3.8009002006       -0.8182758387
 C       -11.9355986754        1.5444282690       -0.2076050859
 C       -10.9678176480        0.9112378478        0.9614870543
 O        -9.9718824528        1.4234003560        1.2956272880
 C       -11.5111496212       -0.3860965908        1.6026568966
 C       -10.7827735331       -0.5660059380        2.9922497750
 C       -11.4177547069       -1.6992864957        3.6627891075
 O       -11.8097507299       -2.5971080460        2.9449502887
 C       -11.8146317233       -1.5808473520        5.2109377195
 C       -12.9361123646       -0.4418122686        5.3578463062
 O       -12.5360206445        0.7026933993        5.4289417340
 C       -14.3319546438       -0.9177869365        5.4738914897
 C       -15.4952714449        0.0194522606        5.0924850306
 C       -16.7905370329       -0.1845816645        5.8747695481
 O       -16.7943092551       -0.5067384182        7.0584962314
 C       -18.1693469049        0.3042689869        5.2981489154
 C       -17.9674719285        1.9848919230        5.5073233389
 O       -17.0099786474        2.5340998336        4.8956444985
 C       -19.0488078504        2.8026638843        6.2410025460
 C       -18.4878606580       -0.0543156195        3.8017982045
 C       -19.1484744135       -0.3444590996        6.2225856666
 C       -11.8992960068       -2.9493966446        5.9284966053
 C       -10.4651253805       -0.8301308827        5.8039456697
 C       -13.2830015157        2.1152103176        0.5993207554
 C       -12.2399495677        0.4519921194       -1.2700947015
 C       -10.2184397314        6.7458042967       -1.9271674954
 C       -11.2495180508        5.0840307260       -3.4686692445
 C        -5.4272033583        6.5428425422       -7.4084813649
 C        -3.9624735821        4.7487596798       -6.3896230687
 C        -4.4221914921       10.2742222701       -2.1725164451
 C        -2.7091097915        9.0173891893       -0.8372167961
 H        -6.0392781887       10.6250267477        0.3163435948
 H        -4.4564620429       10.5836823247        0.7735187315
 H        -5.5041850606        9.4752360436        1.7597931285
 H        -2.9229258066        6.7341317665       -3.4501714835
 H        -2.4840965609        8.4112733809       -3.5397263134
 H        -3.5514663010        7.7447489882       -5.7914311998
 H        -4.6777647823        8.6490815081       -4.8052025047
 H        -8.3349025973        5.2537291240       -7.4229724322
 H        -7.7694708084        6.4152221427       -6.2751323151
 H        -9.2094826298        4.0244190031       -5.0100838213
 H       -10.0620258957        5.1930323748       -5.9622615294
 H        -8.2735445565        2.6171906181       -3.1025489803
 H       -10.0049576273        2.9316246027       -3.3621382401
 H        -8.8244772426        2.1166532984       -0.7599288081
 H        -9.5837116284        0.9210517437       -1.8592613366
 H       -11.3854181675       -1.2918771397        1.0161981699
 H       -12.5721125691       -0.1093402642        1.7730006311
 H       -10.9404416270        0.2102364679        3.5964223069
 H        -9.7318432264       -0.6349169841        2.9550222860
 H       -14.4722224282       -1.1950208998        6.5650545802
 H       -14.3261694179       -1.8919815695        4.9247512488
 H       -15.7514398710       -0.0913263443        3.9935452163
 H       -15.1460007739        1.0212434413        4.9977709948
 H       -18.9160766242        3.8325324474        5.9407342891
 H       -18.9043800591        2.5299060073        7.2098411939
 H       -20.0118727243        2.3484666764        5.9692440711
 H       -19.3197410512        0.5049157765        3.4917092052
 H       -18.7161399371       -1.1190698781        3.7266089898
 H       -17.6946032002        0.1604762996        3.1357927311
 H       -20.0999607338       -0.1575497432        5.7201427866
 H       -19.0331397347       -0.0407039108        7.2587902351
 H       -18.9883650346       -1.3212831772        6.1011921688
 H       -11.9129784764       -2.9119114402        7.0061786783
 H       -10.9540902079       -3.3943333012        5.5462986793
 H       -12.6817798993       -3.5839682161        5.4235090152
 H        -9.5394259515       -1.2958109532        5.4482478661
 H       -10.5771602683       -1.0719709559        6.8169979912
 H       -10.4535008125        0.2664839651        5.7811931027
 H       -13.7801401728        2.8465263842        0.0500755544
 H       -13.1040993742        2.4612463428        1.6286715068
 H       -13.9947984515        1.2539459259        0.7425841699
 H       -12.1212197958       -0.6504634768       -1.0009942937
 H       -11.8961691567        0.4391345421       -2.3305333097
 H       -13.2967379449        0.3985046082       -1.3458422215
 H       -11.2385150152        6.8852398289       -1.6418681554
 H        -9.8597629367        7.6666654824       -2.3509832020
 H        -9.9527939713        6.5491854397       -0.9430716292
 H       -11.8995830875        5.8961958916       -3.8672137911
 H       -11.8148009985        4.5417153207       -2.6881981477
 H       -11.1656632337        4.3755591886       -4.2922509884
 H        -4.6722535307        7.3287548703       -7.5025826490
 H        -6.3002945609        7.0861161970       -7.2271362075
 H        -5.3976484525        5.9462664544       -8.3244202773
 H        -3.8547156471        4.4053760462       -7.4798848197
 H        -4.0465806727        3.8918383319       -5.7431284483
 H        -3.0849883420        5.2892168745       -6.0414803360
 H        -5.2037375588       10.1622190445       -2.8896715397
 H        -3.6267919662       10.5675820223       -2.8421973880
 H        -4.5837590097       11.0890979723       -1.5050156511
 H        -2.7129687742        8.1678548010       -0.1868558809
 H        -2.3907500573        9.8428889978       -0.1608089188
 H        -2.0397052578        9.0773519343       -1.6862343154
 Na       -6.9295682301        6.6092190730       -1.8302364590
