117

 C        -5.3005237149       10.0387438520        0.7275863323
 C        -5.2156647909        8.7867904458       -0.2584918927
 O        -5.9956574304        7.8562106500       -0.0705190525
 C        -4.0889504909        8.9294641974       -1.4244579764
 C        -4.0761515475        7.6351372731       -2.3506802421
 O        -4.4794543548        6.5793122091       -1.9034470703
 C        -3.2977696829        7.8032817595       -3.6856767113
 C        -4.2575126236        7.7530881640       -4.9369472516
 C        -5.1277339434        6.4670666502       -4.9145242318
 O        -5.7900603369        6.2751991372       -3.8693157453
 C        -5.2929501499        5.6341641332       -6.2281692874
 C        -6.5460988381        4.7052823324       -5.8238890059
 O        -6.5051813031        3.5302786495       -5.5028764643
 C        -7.8728803578        5.3415439458       -6.4812674802
 C        -9.1325150376        5.1771613195       -5.5287757259
 C        -9.0015622444        5.9983560116       -4.2219377987
 O        -8.3587310394        7.0235608324       -4.1514322748
 C        -9.9016110759        5.5236570794       -2.9969328319
 C        -8.9953524018        4.3314397130       -2.2727523831
 O        -8.0904160172        4.6959441755       -1.5074536779
 C        -9.1601410605        2.8317152911       -2.5827019687
 C        -9.6955862663        2.0009554770       -1.4663072354
 C       -10.9971290039        2.4986273252       -0.9231382314
 O       -11.3323211475        3.6898706436       -0.9440587612
 C       -11.8048817989        1.4469640649       -0.1123176774
 C       -10.9440303623        0.8519896382        0.9364518298
 O        -9.8735210862        1.2441736272        1.2335787933
 C       -11.5020028289       -0.3838586881        1.5779689407
 C       -10.9651513841       -0.4265423305        2.9434786779
 C       -11.4626417030       -1.6091095400        3.7082331036
 O       -11.7563555077       -2.7509060561        3.2871000351
 C       -11.6372666904       -1.4015831037        5.3092176901
 C       -12.9284028662       -0.3699467693        5.4669289510
 O       -12.7994388330        0.7990031737        5.5818436095
 C       -14.4601616584       -0.8800424033        5.5800875672
 C       -15.4525025378        0.0871479256        5.0680553410
 C       -16.7673306285       -0.0559268669        5.7661116842
 O       -16.7305970029       -0.3356944978        6.9481678356
 C       -18.2429097431        0.3736094647        5.2558821105
 C       -18.0285181259        1.8865607620        5.3304587323
 O       -16.9964653870        2.4457425849        4.8685652423
 C       -18.9060925487        2.7770299974        6.2474146145
 C       -18.5357541377       -0.0135014437        3.7538506623
 C       -19.3060618001       -0.1990941093        6.2390268361
 C       -12.0479811348       -2.6672292116        6.0268739397
 C       -10.3768848644       -0.6813408315        5.9257157045
 C       -12.9833560005        2.2473420779        0.4885273361
 C       -12.3505576688        0.3820457002       -1.1161578225
 C       -10.1539823757        6.6456889902       -2.0920855678
 C       -11.2697669767        4.8685228476       -3.4630482471
 C        -5.4576808739        6.5620590575       -7.3471301264
 C        -3.9254753195        4.7997830475       -6.5415993202
 C        -4.3669185163       10.2369238740       -2.1897004747
 C        -2.7165337584        8.8237342967       -0.6880015771
 H        -6.0191988534       10.5990550219        0.1449627869
 H        -4.4146370349       10.7493807456        0.7090098411
 H        -5.5029707380        9.7168462623        1.7340076377
 H        -2.4572735393        7.0431638782       -3.8600851067
 H        -2.8143714357        8.7479613948       -3.6601483083
 H        -3.7406470514        7.7458283963       -5.8431895177
 H        -5.0060153302        8.6468531603       -4.8627632930
 H        -8.1648441236        5.0300600348       -7.6019235842
 H        -7.7383775838        6.3856438345       -6.6426999163
 H        -9.3089972030        4.0453577108       -5.3533687809
 H       -10.1370752006        5.4587366884       -5.9485583599
 H        -8.1583819766        2.3806461100       -2.6618651932
 H        -9.7439685732        2.6232482939       -3.5224727325
 H        -8.9691385350        1.9422735538       -0.5919452820
 H        -9.7793941694        0.9469837614       -1.8319410636
 H       -10.9741026910       -1.2902481396        1.1544453700
 H       -12.6207634622       -0.3672892269        1.5129078488
 H       -11.0147019512        0.4694642923        3.6151831715
 H        -9.9024581046       -0.5713858164        2.9372301919
 H       -14.7226793181       -1.0130311296        6.6279352061
 H       -14.6160693633       -1.8755185444        5.0818768070
 H       -15.4798710136        0.2110542287        4.0241430100
 H       -15.0812069548        1.1349647281        5.2642023949
 H       -18.6316918399        3.6860349670        5.8539448755
 H       -18.6257690588        2.5478414711        7.2679772203
 H       -19.9016011738        2.5556770388        6.1860049924
 H       -19.4545027567        0.4187693833        3.5595849789
 H       -18.5526754782       -1.1424134849        3.5735484962
 H       -17.8537245438        0.4216152827        3.0688351362
 H       -20.2549196490        0.3422858490        6.1080527405
 H       -18.8949356526       -0.4525297108        7.2986681416
 H       -19.5869076200       -1.1198306606        5.6628945012
 H       -12.4724801477       -2.4806341285        7.0233031194
 H       -11.2288046743       -3.4031859224        6.0759982506
 H       -12.7082837115       -3.0909924939        5.3213714071
 H        -9.4433601029       -0.7470725673        5.3613714008
 H       -10.3200013026       -1.2989315447        6.9353486543
 H       -10.6140993141        0.3020332149        6.2704198632
 H       -13.3848466091        2.8659959976       -0.2703697098
 H       -12.7515541211        2.8756949531        1.3649882039
 H       -13.6985181209        1.5696673513        0.7994121879
 H       -11.9659711666       -0.5364044041       -1.0923979085
 H       -12.2906190743        0.6208104002       -2.1278049313
 H       -13.4283404605        0.2299760194       -0.9903543568
 H       -11.0791315778        6.7134276362       -1.6115525563
 H        -9.9495732564        7.5523708321       -2.5920280854
 H        -9.6330835658        6.4822936207       -1.0909346454
 H       -11.9708255631        5.6155968317       -3.8478631072
 H       -11.8282241395        4.2479892791       -2.8112762278
 H       -11.0268626986        4.2670561327       -4.3435342903
 H        -4.5967361112        7.3206201396       -7.1772051353
 H        -6.3064906596        7.1703016208       -7.3744329638
 H        -5.1244728582        6.0783163931       -8.2202078716
 H        -3.5950417706        5.1005735389       -7.6049111533
 H        -4.1759089750        3.7045457010       -6.5593981655
 H        -3.0973056056        4.9431317172       -5.8146294891
 H        -4.5414735432       10.0680891398       -3.2280444929
 H        -3.4805469380       10.7420460948       -2.2455573116
 H        -5.0673032686       10.9504866359       -1.7411108190
 H        -2.7395202404        7.8469984964       -0.2572810364
 H        -2.4798063725        9.3911652756        0.1167930426
 H        -2.0016031218        9.0933741203       -1.5082229507
 Na       -6.7683776880        6.5590960619       -1.8406393629
