117

 C        -5.2872826271       10.0585842810        0.6751198474
 C        -5.2325937778        8.8393394125       -0.2478087702
 O        -6.0229398285        7.9159979783       -0.0521837392
 C        -4.0761352722        8.7750917635       -1.3525427871
 C        -3.9524200836        7.6266005691       -2.2834394747
 O        -4.0397564720        6.4828146802       -1.9357258471
 C        -3.3276261766        7.8335801800       -3.7270216415
 C        -4.2629720639        7.7143475905       -4.9219377546
 C        -5.1770219650        6.4501101952       -4.9173126746
 O        -5.9401983614        6.1154857548       -4.0668123644
 C        -5.2818188709        5.7100958081       -6.2598428241
 C        -6.5049326618        4.7361819961       -6.0314054202
 O        -6.5986130022        3.7682675923       -5.3596857464
 C        -7.8716333585        5.3351084348       -6.5217362642
 C        -9.1249189775        5.2122591639       -5.6124360929
 C        -9.0502797687        5.9075277903       -4.2774435029
 O        -8.4541803573        6.9300723194       -4.0868313926
 C        -9.8271849737        5.3570832585       -3.1053966729
 C        -9.0032174291        4.2958081313       -2.3558824852
 O        -8.0922498358        4.7301924014       -1.6469846587
 C        -9.0407192428        2.8294759460       -2.7042739276
 C        -9.6217038013        1.9862832371       -1.4942396937
 C       -10.9968825072        2.4964524908       -1.0117450750
 O       -11.3972755287        3.6217803419       -1.0602503933
 C       -11.9285207828        1.4546352888       -0.1846082197
 C       -10.8870986788        0.7139330098        0.8708862172
 O        -9.7120402562        1.1476785722        1.1732776500
 C       -11.4842005155       -0.5748981015        1.6354947789
 C       -11.0910808080       -0.4800557649        3.0684031111
 C       -11.5284025215       -1.6296934070        4.0632623903
 O       -11.6763767492       -2.7178526189        3.6374129949
 C       -11.8056622533       -1.2202653616        5.5813181233
 C       -12.9947000734       -0.2535058677        5.5793109307
 O       -12.9234683093        0.9743962322        5.6800310504
 C       -14.3910955382       -0.9146829164        5.5692830482
 C       -15.4153361146        0.0887770090        4.9730270081
 C       -16.7439094423        0.0119547421        5.8274231573
 O       -16.6470178648       -0.2994016996        6.9753988972
 C       -18.2728831580        0.4278521348        5.2102582821
 C       -18.0020205565        1.9648201953        5.2661744907
 O       -17.0716657939        2.3343196704        4.6695634580
 C       -18.8546459808        2.8311104641        6.3290210560
 C       -18.4568947182        0.0428258774        3.7504684991
 C       -19.4586415707        0.0026366055        6.1002542921
 C       -12.1859354140       -2.5119526941        6.2099689864
 C       -10.4496839871       -0.5843127891        6.0364023841
 C       -12.8957470931        2.3661136180        0.4896016944
 C       -12.5174544261        0.3324870652       -1.0424331221
 C       -10.0689472755        6.5531936713       -2.1193114029
 C       -11.2165616272        4.7393420903       -3.6461805117
 C        -5.4859152601        6.6720535636       -7.4926124271
 C        -4.0258842118        4.7324850629       -6.4342985196
 C        -4.2454897723       10.1663857378       -2.1405213789
 C        -2.7331866589        8.6909567658       -0.5478064042
 H        -6.0488328524       10.8016875452        0.2745175121
 H        -4.3410153298       10.6099929549        0.6765930807
 H        -5.3590582682        9.6078798497        1.6233842857
 H        -2.4716324516        7.1834915345       -4.0163506357
 H        -2.8451062031        8.8573805730       -3.8324603382
 H        -3.6670575890        7.6064480104       -5.8056769319
 H        -5.0604470899        8.6161933896       -5.0273205361
 H        -8.2308265979        4.8480131454       -7.3134016045
 H        -7.7400159669        6.3223932382       -7.0327110090
 H        -9.3629509711        4.1578306895       -5.5959022167
 H        -9.9800663147        5.5989541019       -6.1388836943
 H        -7.9809783206        2.4494794096       -2.7516477054
 H        -9.5750786475        2.5793282780       -3.6662346931
 H        -8.9101895611        1.8457870247       -0.6097838369
 H        -9.7772468898        1.0218380116       -1.8240539099
 H       -11.1062951548       -1.5454959989        1.2135910810
 H       -12.5634539909       -0.3874035937        1.6430053071
 H       -11.5575892085        0.5378870588        3.4802765516
 H       -10.0045430406       -0.2397327879        3.2998934381
 H       -14.7179485215       -1.1030834596        6.5714492069
 H       -14.4296617982       -1.8577490413        5.0309844675
 H       -15.4792649484        0.1105663081        3.9242771619
 H       -15.0473584776        1.1371469456        5.0568172771
 H       -18.6208749380        3.8177524427        6.0214794117
 H       -18.6956632858        2.4457451125        7.3566125993
 H       -19.8788592102        2.5843218251        6.1365214493
 H       -19.5750663524        0.2838118116        3.6115145065
 H       -18.2391685720       -0.9899535492        3.6190939778
 H       -17.9050737021        0.6369731339        2.9830293520
 H       -20.2447804920        0.7912670508        6.2238209363
 H       -18.9114077875       -0.3831898339        6.9901551378
 H       -20.1523144072       -0.8614783709        5.5434336218
 H       -12.6711818492       -2.2388136370        7.1596677840
 H       -11.3236862840       -3.1057372106        6.4288477270
 H       -12.7242818727       -3.1416229725        5.5294120439
 H        -9.8274108068       -0.4724508105        5.1210311437
 H        -9.9262129920       -1.1879229139        6.7864435848
 H       -10.6482455791        0.4153450460        6.4913018386
 H       -13.6215594774        2.9586109964       -0.1169442588
 H       -12.2900090869        3.0611962171        0.9962468772
 H       -13.3827083329        1.8047876075        1.2411375397
 H       -11.7014226532       -0.2916058263       -1.3468539446
 H       -12.8536736362        0.6687144317       -1.9595973389
 H       -13.3650985889       -0.2401938026       -0.7633956662
 H       -10.8587121402        6.4340660626       -1.3613181507
 H       -10.2737142275        7.4454275003       -2.7233574543
 H        -9.3012896166        6.6674807339       -1.3291946797
 H       -11.5903584514        5.5592039301       -4.2046896642
 H       -11.9881240416        4.5518342414       -2.9174726210
 H       -11.2040497797        3.9098296430       -4.3491774591
 H        -4.5822711495        7.0730774616       -7.8815888405
 H        -6.1333488893        7.5957251045       -7.1643345136
 H        -5.7933102565        5.9942503167       -8.2892778233
 H        -3.3841233027        5.3501629711       -7.0094830114
 H        -4.3021172168        3.8364481574       -7.0892161829
 H        -3.4146618107        4.4048354427       -5.5323541454
 H        -3.8771702192       10.0913732665       -3.1541062095
 H        -3.4989926941       10.9114535585       -1.7045777115
 H        -5.2177875567       10.6379088016       -2.0974186792
 H        -2.5479595405        7.8010471542        0.0250023202
 H        -2.7172978783        9.4213279204        0.2727258850
 H        -2.1027597216        9.1417373090       -1.2364692148
 Na       -6.7214029247        6.4937650358       -1.8499073071
