117

 C        -5.3703925012        9.8955943812        0.7359640318
 C        -5.1964059788        8.7438990275       -0.3748073505
 O        -6.1065743934        7.9674468033       -0.4283159879
 C        -3.8416828688        8.7866472059       -1.2681089441
 C        -3.6727798717        7.4944734820       -2.2490602868
 O        -3.7521106019        6.3954062516       -1.6965953283
 C        -3.2709983944        7.6710342548       -3.7719156921
 C        -4.3904476678        7.7568127280       -4.8886070357
 C        -5.2483787232        6.5441752306       -5.0637964887
 O        -5.8186350412        6.1162128851       -4.0172734385
 C        -5.3139891050        5.7984147322       -6.3741746379
 C        -6.7461488494        4.9859803660       -6.1831799108
 O        -6.8093289371        4.0347541560       -5.4119660485
 C        -8.0228467337        5.4467201601       -6.7674084420
 C        -9.1509312343        5.1720054827       -5.7278935552
 C        -9.0435099241        5.8773983774       -4.4059321608
 O        -8.1827262269        6.7539479783       -4.2928553233
 C       -10.0006299330        5.3245147567       -3.2762803800
 C        -8.9408610666        4.1904809611       -2.6063639859
 O        -8.0454764396        4.5580191714       -1.8945070738
 C        -9.0600559623        2.6660014552       -2.8383113263
 C        -9.4500417719        1.7956469435       -1.6719329566
 C       -10.8519583294        2.3215011501       -1.0124321239
 O       -11.2412941277        3.4369927789       -1.3809849949
 C       -11.7785425968        1.3729197310       -0.1087493028
 C       -10.8647143650        0.4688597978        0.9889544213
 O        -9.7542472580        0.7873030890        0.9492306520
 C       -11.5323462110       -0.6333630761        1.8603381550
 C       -11.3491257662       -0.3420143181        3.4093540217
 C       -11.5412773479       -1.4600323247        4.3978175440
 O       -11.6175213972       -2.6625480228        4.0643040265
 C       -11.8961994810       -0.9394122019        5.9340894012
 C       -13.1410253817       -0.0512491893        5.7765535409
 O       -12.9449644961        1.1151782494        5.8165866147
 C       -14.4391496902       -0.8013437681        5.3627718591
 C       -15.7495083533       -0.0617133851        4.9131316699
 C       -16.8700249991        0.0161846816        5.9219569426
 O       -16.9145865452       -0.3743794663        7.0807485367
 C       -18.1282170008        0.6355752240        5.2347363953
 C       -17.9773778332        2.1718342859        5.1471391976
 O       -17.3445037620        2.7594661324        4.2088589399
 C       -18.5426110522        3.0638128231        6.3091253947
 C       -18.2535686179        0.0906630003        3.6769721385
 C       -19.3998767811        0.0495019155        6.0225303094
 C       -12.1946683017       -2.1919589266        6.9180718414
 C       -10.7720304299       -0.2603390206        6.5894750659
 C       -12.7897912742        2.1572143305        0.8807325389
 C       -12.6960441846        0.5117761649       -1.1157220955
 C       -10.3643666264        6.2347877622       -2.1959149951
 C       -11.2071608149        4.7003340384       -3.8591542638
 C        -5.2933301393        6.5746827635       -7.7726523543
 C        -4.1962229735        4.7474486891       -6.3903585046
 C        -3.9142123490       10.0839757731       -1.9264750414
 C        -2.5495580476        8.7464985789       -0.2451672916
 H        -6.2127383055       10.3399434822        0.3007868579
 H        -4.5509613197       10.6152006380        0.9537155811
 H        -5.5951880685        9.3358075549        1.6543186566
 H        -2.6718220589        6.8519910659       -4.1345070082
 H        -2.6144014320        8.4763549184       -3.9284491045
 H        -3.9651092444        8.0254720948       -5.8558135194
 H        -5.1438152297        8.4373052124       -4.6417111988
 H        -8.2204638167        4.9899775236       -7.8897610776
 H        -7.9688484177        6.4331562740       -7.0877355493
 H        -9.2445312965        4.0965928098       -5.5192641076
 H       -10.1120018396        5.4886197232       -6.1280481541
 H        -8.1243102300        2.2914193022       -3.1982094867
 H        -9.7434493514        2.4080891545       -3.6092537832
 H        -8.7609738344        1.6478729824       -0.8954883364
 H        -9.5683815961        0.7150074854       -2.0667015556
 H       -10.9373183044       -1.4509234006        1.5983729871
 H       -12.5724623231       -0.7073420987        1.6167525064
 H       -11.9496928540        0.4420994011        3.6852781890
 H       -10.3955208225        0.0245749739        3.6741808236
 H       -14.7118485526       -1.3096144063        6.3149160940
 H       -14.1906114694       -1.6470520757        4.7013819023
 H       -16.0989365243       -0.5578136183        3.9606469578
 H       -15.6704525292        0.9269958448        4.4869348250
 H       -17.6906394062        3.7910501329        6.4208434847
 H       -18.7689409860        2.3591428266        7.1296534918
 H       -19.4691707665        3.5971865086        5.9749960939
 H       -19.1044361975        0.2988020574        3.1231436165
 H       -17.9228567149       -1.0104976019        3.7220975874
 H       -17.4268219794        0.5505341292        3.1593116607
 H       -20.2590068376        0.4686870528        5.6831791419
 H       -19.1775501845        0.1052681568        7.0352178245
 H       -19.4698125947       -0.9540530920        5.7609142818
 H       -12.4822344977       -1.7516272961        7.8615635176
 H       -11.4112539373       -2.9711616441        7.0607226248
 H       -12.9648436289       -2.7737259094        6.3814700773
 H       -10.3894019618        0.4446476363        5.9162547355
 H        -9.9380134990       -0.9483187326        6.9140133400
 H       -11.2164465822        0.2737288456        7.3624052350
 H       -13.7672063581        2.2448385753        0.4283581573
 H       -12.4798756011        3.2714879412        0.9009301188
 H       -12.8886793637        1.7040117947        1.9071529128
 H       -12.3293106157        0.3550041079       -2.1604162477
 H       -13.8248003565        0.7471545098       -1.2256194864
 H       -12.9159188325       -0.5384901268       -0.6936218398
 H       -10.2993416791        5.8956211190       -1.1732142348
 H       -11.3976960588        6.5035371583       -2.3485160294
 H        -9.7507733248        7.1883764082       -2.0995851673
 H       -11.6722780375        5.1993764783       -4.7430761048
 H       -12.0130403267        4.6911085206       -3.1392942839
 H       -10.9981425238        3.6606088546       -4.1185548756
 H        -4.5259213379        6.0783137761       -8.4704082126
 H        -4.9258612117        7.4920645797       -7.5288555983
 H        -6.1343640575        6.5815576671       -8.4291756187
 H        -3.5616883602        4.7327501288       -5.4738756904
 H        -3.7314289782        4.6137849967       -7.3053512888
 H        -4.7092822595        3.8721889847       -6.2232346859
 H        -2.8908883800       10.4581481338       -2.1875166500
 H        -4.4144456640       10.8319017972       -1.3675148732
 H        -4.4964630765        9.9550308574       -2.9248039850
 H        -2.7342968847        7.9095113985        0.4232787884
 H        -2.4778800450        9.5284901014        0.4802248977
 H        -1.5997934074        8.7869965491       -0.9045408582
 Na       -6.5573929444        6.4094619918       -1.9790197793
