117

 C        -5.3481812676        9.4682879202        0.7871024571
 C        -5.1094577812        8.8069235785       -0.5301985202
 O        -5.9452270212        8.0229821526       -0.9784818748
 C        -3.7280025351        8.7917479501       -1.2338557760
 C        -3.7223230538        7.4858919890       -2.1297071805
 O        -3.9917451139        6.4690224569       -1.5692938833
 C        -3.2193598139        7.5411942296       -3.6014119671
 C        -4.3264282985        7.8496196825       -4.6827845985
 C        -5.0458965432        6.5914029287       -4.9821198021
 O        -5.3415559902        5.9995856990       -3.9893484148
 C        -5.3154627272        5.7927463437       -6.3480237377
 C        -6.8309339491        5.0812060730       -6.3192660656
 O        -6.8819724917        4.0028840196       -5.7525561529
 C        -8.0357811775        5.8264657090       -6.8101747635
 C        -9.2459861484        5.3942664899       -6.0421701351
 C        -9.1591812299        5.6560140108       -4.5138103227
 O        -8.3163258034        6.4254854899       -4.2080444240
 C       -10.0402484747        5.0214691380       -3.4519742263
 C        -9.0576120725        3.9572424019       -2.7316283627
 O        -8.0619367949        4.3259906258       -2.1211960894
 C        -9.2930807148        2.5066491461       -2.8938539378
 C        -9.5230129250        1.6570471596       -1.6094326788
 C       -10.8314040222        2.1493471504       -0.9396264672
 O       -11.3561331141        3.2186481534       -1.1267104085
 C       -11.5895390638        1.1813576307        0.0458278270
 C       -10.8404066641        0.3190863391        1.0485303418
 O        -9.5858544911        0.2317323829        1.0319304550
 C       -11.6139770518       -0.6191369054        2.1484409250
 C       -11.3275081691       -0.1053369032        3.5472372101
 C       -11.5832438896       -1.1526742498        4.6946263879
 O       -11.5326043368       -2.3072493847        4.4121517083
 C       -12.0070218794       -0.7201041369        6.1437810116
 C       -13.3243620679       -0.0533351161        6.0302873933
 O       -13.4116714161        1.1897683617        5.8858829494
 C       -14.5780158615       -0.8366031403        5.6981055618
 C       -15.5221558349        0.0116699902        4.8393575440
 C       -16.9338829184        0.0085100054        5.6557865789
 O       -16.8770623281       -0.3721709450        6.8355444863
 C       -18.1725654835        0.7602827078        5.0539026057
 C       -17.9975398259        2.3832038929        5.0619207516
 O       -17.7490592648        2.8855905396        4.0422058652
 C       -18.1951056035        3.1903534491        6.2664952697
 C       -18.4344662408        0.2642632838        3.6163360617
 C       -19.4598486121        0.3971482492        5.9458266329
 C       -12.0986072883       -2.0137042030        7.0212007347
 C       -10.7985416921        0.2829349490        6.8009241326
 C       -12.3992094056        2.2176014132        0.9579204775
 C       -12.5256841363        0.3278263725       -0.9123602135
 C       -10.2133197003        6.2060248662       -2.4398737185
 C       -11.3362639432        4.5185506949       -3.9945925596
 C        -5.1754777606        6.6559435212       -7.6581497924
 C        -4.3608591700        4.6860219384       -6.2179000165
 C        -3.4373461130       10.1702068169       -2.0812081671
 C        -2.6245303513        8.6901105546       -0.2421722905
 H        -6.0633665697       10.3512439777        0.7434864544
 H        -4.3459919154        9.6446454289        1.0629607444
 H        -5.6522287329        8.6623237100        1.4720355117
 H        -2.5768947332        6.7002822836       -3.8547268123
 H        -2.5775994194        8.4703307134       -3.7367529578
 H        -4.0014426855        8.3712412987       -5.6868584256
 H        -4.9529390074        8.5566212702       -4.0827764885
 H        -8.1081708949        5.6980272311       -7.8012476645
 H        -8.0309386522        6.9832821142       -6.8304577719
 H        -9.5809699967        4.3514010157       -6.3000621931
 H       -10.0675065635        6.0942078898       -6.4137017284
 H        -8.4950656862        2.0879275580       -3.5526049872
 H       -10.1977093788        2.3753787985       -3.5319365920
 H        -8.6968461904        1.6215851148       -0.8086624246
 H        -9.7325958185        0.6254451813       -1.7019311307
 H       -11.2026756838       -1.6961633696        2.0429887152
 H       -12.6765804973       -0.5305208436        1.8511674322
 H       -11.8720892881        0.8745102279        3.7375903972
 H       -10.1941351233        0.1556808821        3.6009776880
 H       -15.1227535961       -1.0932344909        6.6332704195
 H       -14.3280346639       -1.8290748407        5.2603809934
 H       -15.5677096456       -0.1685827562        3.7656665747
 H       -15.0258264847        1.0312389057        4.8304435653
 H       -17.3042977902        3.5941128563        6.6107584789
 H       -18.7340167918        2.6117754768        6.8962866672
 H       -18.7911920654        3.9634057226        5.8322039891
 H       -19.3454480241        0.8383638698        3.2793934726
 H       -18.6360811274       -0.7212660187        3.6140411179
 H       -17.6763481930        0.5807478703        2.8885838766
 H       -20.4793628668        0.4643860652        5.2990053526
 H       -19.4034524599        1.1769589519        6.8046607883
 H       -19.3839074574       -0.5828430077        6.4243790559
 H       -12.4709908903       -1.6796763798        8.0073714145
 H       -11.0911563988       -2.3124810928        7.1423208008
 H       -12.5962464280       -2.8953819721        6.5696429209
 H       -11.0644237177        1.3665715569        6.5608152859
 H        -9.9194422347        0.0785222558        6.2903799612
 H       -10.7210778696        0.2290338899        7.9404006391
 H       -13.3723834413        2.3981258483        0.5094427291
 H       -11.9835533179        3.1433222574        1.0238049030
 H       -12.6184239791        1.7499361135        1.8918256562
 H       -12.0626840661        0.1798875983       -1.8611496311
 H       -13.3778366578        0.8886983212       -1.1269087015
 H       -12.9320959558       -0.5565173701       -0.6750410527
 H       -10.0748924318        5.7492756642       -1.3957420442
 H       -11.2384409953        6.5866412708       -2.3089754178
 H        -9.5917422062        7.0637969696       -2.5414297989
 H       -12.1269466000        5.2423150379       -4.0196519254
 H       -11.7143874722        3.7769739961       -3.2532977817
 H       -11.2367897772        4.0174179122       -4.9572365123
 H        -5.5221454042        5.9851004999       -8.3580022246
 H        -4.1936759726        7.1078897597       -7.9994738758
 H        -5.9617847098        7.5067781160       -7.6889709269
 H        -4.7647835465        3.9971455878       -5.4911530439
 H        -3.3428301125        5.1409786577       -6.0983407049
 H        -4.2119470997        4.0079257010       -7.1266400332
 H        -2.4323922153       10.4835627974       -2.1690846528
 H        -4.0941774638       10.9272053433       -1.5629872029
 H        -3.7243669818       10.0338577054       -3.0547521806
 H        -2.8429846878        7.8658871574        0.4534875040
 H        -2.6286830654        9.6277750214        0.4072342875
 H        -1.7323685939        8.5726988241       -0.7305244715
 Na       -6.6476707160        6.1634329737       -2.2930817997
