117

 C        -5.6937552584        9.4862130774        0.1845700634
 C        -5.5569722518        8.3529802746       -0.9173803780
 O        -6.5170787422        7.8599049689       -1.4568099124
 C        -4.0645938415        8.0582455749       -1.4233332962
 C        -3.9629175886        6.6977237777       -2.1170909716
 O        -4.4864119691        5.7379193090       -1.5878283620
 C        -3.0222789665        6.5203607967       -3.3098185114
 C        -3.5496618149        6.8827393316       -4.7192562222
 C        -4.6678634789        5.9647283448       -5.2650163244
 O        -5.4614195360        5.4218285629       -4.4724272968
 C        -5.0327072217        5.9838086169       -6.8689660108
 C        -6.4699611406        5.4595158001       -6.8229476553
 O        -6.8420922817        4.2594317822       -6.9786971277
 C        -7.5080805982        6.4748752419       -6.2728621288
 C        -9.0137666573        5.8911256049       -5.8446025388
 C        -8.9690146766        5.5025496046       -4.2709996918
 O        -8.2192688271        6.1903964864       -3.5772564116
 C        -9.9940675725        4.5123737925       -3.7472743085
 C        -9.0840904260        3.3662973073       -2.8094567287
 O        -8.1634266151        3.7722448432       -2.0980903497
 C        -9.6200569560        2.0103091672       -2.7556873220
 C        -9.6222271229        1.1748140874       -1.4776065916
 C       -10.5208654869        1.8303509471       -0.4215035747
 O       -10.5955056662        3.0480491111       -0.3734850371
 C       -11.4291327358        1.0272988787        0.5959571924
 C       -10.4538446964        0.2536518931        1.5522716828
 O        -9.3002365522        0.3873552388        1.3591384023
 C       -11.0683132557       -0.3885552954        2.8018432186
 C       -11.2589525673        0.4306302836        4.0635542177
 C       -11.6653339257       -0.3047398628        5.3167432671
 O       -11.8242702686       -1.5352311140        5.2264447167
 C       -12.2692995560        0.5535676747        6.5609629701
 C       -13.7979593755        0.9075886693        6.0921472293
 O       -14.0456143046        2.0011825820        5.7130108268
 C       -14.7127432513       -0.3740962342        6.0731217695
 C       -15.7325873205       -0.2278258206        4.9375920074
 C       -17.1105175901        0.2449237146        5.5240039114
 O       -17.4292623641       -0.0340851245        6.6821416226
 C       -18.1682062593        1.1969483949        4.7389063270
 C       -17.7710678381        2.7007567289        4.6544953295
 O       -18.0820115168        3.3334557345        3.5852018031
 C       -16.7170354942        3.4379409690        5.6607638625
 C       -18.5795107829        0.7988663218        3.3837678795
 C       -19.5299159749        1.1662418210        5.5478248492
 C       -12.4534510792       -0.2544537037        7.8886923476
 C       -11.2629328425        1.7666977630        6.7505033984
 C       -12.2688122740        2.0508198277        1.3522191302
 C       -12.2895166204       -0.1109520284       -0.1116919053
 C       -10.7449333380        5.2985433392       -2.4930132834
 C       -11.0219142092        3.8682685333       -4.7511731045
 C        -4.8161679259        7.2827270032       -7.6795449678
 C        -4.1034560576        4.7710264662       -7.5135619675
 C        -3.5747721282        9.2358847310       -2.4038255897
 C        -3.0973477918        7.9557080773       -0.0732519696
 H        -6.3923534816       10.1961178212       -0.1714840093
 H        -4.6938375518        9.8824233379        0.3155175963
 H        -6.1848571829        9.0157186097        1.0597144835
 H        -2.5664460746        5.6086539501       -3.3294110556
 H        -2.2621220169        7.2766158854       -3.1802674384
 H        -2.7035530461        6.7955247761       -5.4957289913
 H        -3.8912336141        7.9655681074       -4.7477323534
 H        -7.7437038916        7.2078598384       -7.0936835248
 H        -7.2163891133        7.0047411961       -5.4719866750
 H        -9.2636296204        5.0388060535       -6.5092824426
 H        -9.7185564452        6.7682371540       -5.9571186054
 H        -9.0275868804        1.4678962261       -3.4533427114
 H       -10.6117086834        2.0564384158       -3.1529111088
 H        -8.6572806179        1.1621314977       -0.9160570706
 H        -9.9658283362        0.0872931829       -1.5258072666
 H       -10.7263881250       -1.3884103173        3.0405211514
 H       -12.0481827637       -0.6531567150        2.4495279761
 H       -11.8724595216        1.2644384133        3.9258364125
 H       -10.2661521026        0.8300713277        4.2621619533
 H       -15.2504325295       -0.6555054296        6.9691295464
 H       -14.0935663990       -1.2415061186        5.7763152742
 H       -16.0301271888       -1.2448355680        4.6116380165
 H       -15.3583621997        0.4341565291        4.1733180575
 H       -15.6504182793        3.0678985021        5.5864502840
 H       -17.1571201348        3.1095915786        6.6383899031
 H       -16.8777032638        4.5019406015        5.5183834999
 H       -19.3264111183        1.4724421665        3.0456819348
 H       -19.0676987472       -0.2370718458        3.4085685172
 H       -17.7271620778        0.7801969903        2.6965733560
 H       -20.4049553391        1.3037882785        4.9455050187
 H       -19.5982728408        1.9237160953        6.2762200152
 H       -19.6037978427        0.1709608757        6.1836522983
 H       -13.3069617634       -0.0018698718        8.5072477954
 H       -11.4867438737       -0.0540284558        8.3422974500
 H       -12.5714114798       -1.3765247449        7.8711095140
 H       -10.8302587171        2.0132187015        5.8260032339
 H       -10.5119848714        1.5951138434        7.5111012722
 H       -11.7676037486        2.6485472173        7.0983937547
 H       -11.7282084603        2.4355127142        2.1888934648
 H       -13.3461400260        1.6758627478        1.4951163690
 H       -12.3622990406        3.0222540607        0.7577755902
 H       -11.8352025465       -0.5386505366       -1.0242215866
 H       -13.2931259370        0.3002327256       -0.5039441724
 H       -12.4032751426       -1.0276394247        0.5717272850
 H       -11.0824076705        4.5680107746       -1.7739167574
 H       -11.7479087187        5.6198800761       -2.9049256166
 H       -10.2581697374        6.1908687042       -2.1229653477
 H       -11.6237705842        4.6050787192       -5.2537253920
 H       -11.6840147355        3.3013183975       -4.0686510983
 H       -10.6682596755        3.1459465949       -5.4416891036
 H        -5.6926850910        7.3470999472       -8.4439606893
 H        -3.9709091322        7.2546238204       -8.2342957254
 H        -4.8336099311        8.1729540966       -7.1144061906
 H        -3.2117292159        4.6046003791       -6.8792529373
 H        -3.7858948261        5.0104081743       -8.4975255182
 H        -4.5346557367        3.8673551034       -7.4654526142
 H        -2.4843620393        9.1036249504       -2.4682404857
 H        -3.7424919486       10.1290972342       -1.8236763499
 H        -4.2038725909        9.2462762918       -3.3149190582
 H        -3.7018569747        7.4100596368        0.6536798302
 H        -2.5039349029        8.8465979074        0.0860395608
 H        -2.2675941210        7.2165000938       -0.2054390557
 Na       -6.6494284287        5.2632583938       -2.3290843473
