117

 C        -6.1718702655        9.2205818272       -0.7464456622
 C        -5.6858177641        7.9335723202       -1.2408242322
 O        -6.5344118643        7.0675988073       -1.1296427784
 C        -4.1633630580        7.6552801261       -1.6065450071
 C        -3.8046693160        6.1428084090       -2.1293948755
 O        -4.4449698106        5.2947297775       -1.5778607661
 C        -2.8837985783        6.0109577754       -3.3175407378
 C        -3.4050253850        6.5549597082       -4.6161235781
 C        -4.7395519764        6.0151687590       -5.1136461992
 O        -5.4662898625        5.3135987024       -4.3793285415
 C        -5.0448764008        5.9668472253       -6.6149394899
 C        -6.5560602884        5.7447813985       -6.9873017555
 O        -6.7421930891        4.7117913631       -7.7027115474
 C        -7.8006142617        6.4802489593       -6.3168066651
 C        -8.8574690319        5.3854626414       -5.7470166330
 C        -9.0284298479        5.4244310175       -4.1987320128
 O        -8.4449828004        6.2672908751       -3.6038748453
 C        -9.8979419349        4.4100834810       -3.6071765739
 C        -9.1536925456        3.2670540557       -2.6628452297
 O        -8.0423915418        3.6100439808       -2.2265058688
 C        -9.5924377494        1.8983095175       -2.5492339233
 C        -9.4696807922        1.2300230770       -1.2446873873
 C       -10.4333597560        2.0015602821       -0.2073568486
 O       -10.6128748408        3.1940126631       -0.3734906592
 C       -11.2397187843        1.0438101963        0.7936597968
 C       -10.4628988247        0.3244863130        1.9572133048
 O        -9.2990082947        0.5333989262        1.9741697470
 C       -11.2672994611       -0.3634348775        2.9861025999
 C       -11.1374938010        0.5159887878        4.2286825461
 C       -11.7835254352       -0.0215533211        5.4534802346
 O       -11.9022842847       -1.2294496899        5.6333357506
 C       -12.3784606481        0.8399550550        6.6414892540
 C       -13.7592528900        1.0990236177        5.8838656356
 O       -13.8419045380        2.0066803746        5.0662325498
 C       -14.7426071689        0.0112569509        5.8642896477
 C       -15.7713761422        0.1701134915        4.7898045479
 C       -17.1177787180        0.6959713902        5.5805265105
 O       -17.3692411887        0.2887479897        6.7486537024
 C       -18.2228729502        1.4131058400        4.6907818030
 C       -17.7056202719        2.8280114003        4.4614957629
 O       -17.7176343307        3.4136127521        3.3638599984
 C       -17.1263884003        3.5163578410        5.7467911275
 C       -18.3449379741        0.4761712098        3.4962172020
 C       -19.5544659858        1.4483244807        5.4775520232
 C       -12.2888243459       -0.0030790768        7.9066728736
 C       -11.7087849498        2.3064409270        6.7372064251
 C       -12.3141609314        2.0363629797        1.2942247119
 C       -11.8474154780       -0.0275633212       -0.1418823846
 C       -10.8728459029        5.1706308451       -2.6783741082
 C       -10.8750169351        3.8377674894       -4.7587164800
 C        -4.6624563894        7.3376956495       -7.2338900563
 C        -4.0282800600        4.9726201660       -7.1541117620
 C        -3.5958991645        8.8565322598       -2.5146151999
 C        -3.2371911234        7.6204987525       -0.2916679422
 H        -7.1800530357        9.3482644665       -1.1637567742
 H        -5.6119095313       10.0404808759       -1.1310047736
 H        -6.1939247186        9.1099089296        0.3590169276
 H        -2.6701042900        4.9738955056       -3.4737089793
 H        -1.8758200959        6.5494021139       -3.1443522867
 H        -2.6581591507        6.4519320747       -5.4887272316
 H        -3.5608223038        7.5918153733       -4.5218504327
 H        -8.4569341681        7.1639696425       -6.9744849713
 H        -7.4129538118        7.0498920577       -5.4372380720
 H        -8.4611651188        4.4773138707       -6.1668328652
 H        -9.7748529047        5.5645470419       -6.1563813080
 H        -9.0009792175        1.3603527312       -3.3210488688
 H       -10.6793903248        1.8683573474       -2.8671019351
 H        -8.4449782748        1.4187786834       -0.8275111295
 H        -9.7515163159        0.1783204946       -1.2123268028
 H       -11.0386665888       -1.4765538271        3.1010068122
 H       -12.2919516607       -0.3413354807        2.6252542376
 H       -11.4666622235        1.4960487889        4.0561805762
 H       -10.0551612253        0.7135813726        4.4370438934
 H       -15.2117435769       -0.1537866281        6.8037727796
 H       -14.1681180880       -0.8962124677        5.5933081094
 H       -16.1634479362       -0.7354592710        4.4691157807
 H       -15.3926019772        0.9132504776        4.0201321694
 H       -16.0497927695        3.5259053539        5.4893187009
 H       -17.4020574892        3.1102631800        6.7050230284
 H       -17.5721499646        4.4841514053        5.6703543071
 H       -19.1613147737        0.7952016280        2.8356749036
 H       -18.5793902252       -0.5044971638        3.9193122311
 H       -17.4515458845        0.2761923914        2.8786123468
 H       -20.1235019219        2.2656673460        5.2284431844
 H       -19.2464761930        1.6091872956        6.4414939895
 H       -20.2964156376        0.6113497292        5.4100283618
 H       -12.5790851321        0.5281334857        8.8091468759
 H       -11.2789155645       -0.3661470365        8.0201610767
 H       -12.8918955293       -0.9390644519        7.8970781541
 H       -12.4185583742        3.0874254788        6.3057823510
 H       -10.8634958296        2.3825927270        6.0712802704
 H       -11.4059725167        2.5615582794        7.8207973700
 H       -12.0107525485        3.0150966505        1.2944916359
 H       -12.6414960783        1.7028476319        2.2620719947
 H       -13.2017994074        1.9289168082        0.6797418438
 H       -11.1075745166       -0.8134903140       -0.1927626192
 H       -11.9878374080        0.3325080659       -1.2180710851
 H       -12.8384457407       -0.2600597242        0.2607588673
 H       -11.9058598931        4.7293845939       -2.4903496810
 H       -11.0024839675        6.2169578592       -3.1768247445
 H       -10.4605120336        5.2520158678       -1.7035833362
 H       -11.2423976150        4.5110146198       -5.5370255008
 H       -11.7981799771        3.4231202757       -4.2485318569
 H       -10.4148118039        2.9654644487       -5.2300677995
 H        -4.9372627558        7.4291649861       -8.3519702772
 H        -3.6165094461        7.4581975601       -7.1286051036
 H        -5.2163522839        8.2062535974       -6.7442565672
 H        -3.7278755884        4.1197764450       -6.4336313421
 H        -3.1260850472        5.5086772979       -7.5736311016
 H        -4.4905306458        4.3705804986       -7.8959332872
 H        -2.5804472888        8.5262859552       -2.6856690822
 H        -3.5160122773        9.7918093895       -1.8925609406
 H        -4.2880442911        9.1125958556       -3.3019027833
 H        -3.3907652119        6.6747954352        0.2980757828
 H        -3.6114311387        8.5049686832        0.3821560605
 H        -2.2223239383        7.9069141449       -0.5149783889
 Na       -6.7445510955        5.2734252575       -2.4783188312
