117

 C        -6.4684742168        8.6069699842       -1.8541126672
 C        -5.7566924017        7.5896573365       -1.0509806318
 O        -6.3025036686        6.7918069643       -0.3542889825
 C        -4.1923188875        7.4152289053       -1.4099665695
 C        -3.9307260331        5.8741090129       -2.0517889986
 O        -4.4526921193        4.8928838114       -1.6040967678
 C        -2.9390694375        5.6759309278       -3.1411732131
 C        -3.2100641953        5.7754221398       -4.6511225399
 C        -4.6586080662        5.5186916199       -5.2374362975
 O        -5.5982002690        5.4707668031       -4.4735703647
 C        -4.9505855880        5.8285288197       -6.8260743587
 C        -6.4616628355        5.6547844109       -7.2740839435
 O        -6.8374420990        5.2750692188       -8.3465484905
 C        -7.6213733839        6.1029002798       -6.3729096753
 C        -8.5083295982        4.8835006462       -5.8155973387
 C        -9.0413764724        5.1059092707       -4.2518943671
 O        -8.7612551676        6.1010238155       -3.6854921564
 C       -10.0324008907        4.0467540333       -3.7191482065
 C        -9.0344345958        2.9806731782       -2.8889097855
 O        -7.9099922766        3.3499989342       -2.6143605899
 C        -9.5890388082        1.6748187244       -2.4564362883
 C        -9.3627738669        1.3557347626       -0.9382872312
 C       -10.4525193325        1.9587820225       -0.1022215288
 O       -10.5326502030        3.1806441492        0.0105866370
 C       -11.3454905663        1.2590261462        0.8372759619
 C       -10.3526753010        0.8269592478        2.0971396469
 O        -9.2084712776        0.8934507588        1.8814899560
 C       -11.0549815797        0.3444489420        3.3049264961
 C       -10.5538694968        0.7500350697        4.6622458132
 C       -11.3696805259        0.1739274562        5.7947234075
 O       -11.4132540053       -1.0043465053        6.1559807137
 C       -12.4008134426        1.2298617821        6.5214235108
 C       -13.7147331877        1.4143835561        5.7570233622
 O       -13.8115362135        2.2225126694        4.8736032474
 C       -14.8969003846        0.3458414712        5.9975619328
 C       -16.0719840803        0.2655357359        4.9543122971
 C       -17.3838308532        0.8863590966        5.5575178376
 O       -17.4591762749        1.0873413139        6.8127960549
 C       -18.4245851298        1.5800405013        4.5456533443
 C       -17.7442603281        2.9772703543        4.2285857135
 O       -17.0957796477        3.1664844241        3.1949462972
 C       -17.6141634426        3.9598832715        5.4350046073
 C       -18.7248018028        0.6961093916        3.3513144803
 C       -19.7676926847        1.7474922409        5.4242496173
 C       -12.7363451851        0.6613270892        7.9083251709
 C       -11.6766283543        2.5420054093        6.7343730902
 C       -12.6516645812        2.0575508768        1.1448830302
 C       -11.6840758381       -0.1705746692        0.0439519621
 C       -10.8604820394        4.7960228185       -2.6090006425
 C       -11.0199737838        3.5255219555       -4.8106247738
 C        -4.7368018607        7.4054414485       -6.8640020620
 C        -4.0369153949        5.2337220354       -7.9246067952
 C        -3.5390107605        8.5357172836       -2.1677066689
 C        -3.4663459103        7.3922720192        0.0242027784
 H        -7.5064135326        8.5898295988       -1.7802392662
 H        -6.4443164240        8.3721791187       -2.9394696381
 H        -5.9623414774        9.6094368966       -1.6615719523
 H        -2.5802527126        4.6663231937       -3.0118256257
 H        -1.9035419043        6.2378724397       -3.0561954668
 H        -2.4714601985        5.2266841703       -5.2153805121
 H        -3.0781667328        6.8498982549       -4.9816800356
 H        -8.3368466405        6.8827091131       -7.0019526322
 H        -7.3681364040        6.5946463157       -5.4170845112
 H        -8.0314818588        3.8796323192       -5.8938595624
 H        -9.3745227032        4.8025660616       -6.4338831017
 H        -9.2010653909        0.8453920569       -3.1205815983
 H       -10.7247840040        1.7101343211       -2.5924862798
 H        -8.4907493204        1.8616925383       -0.6003788980
 H        -9.2068112347        0.2380196855       -0.8928053693
 H       -10.7929376976       -0.7847658825        3.2496175316
 H       -12.1434631133        0.4875026635        3.2781644118
 H       -10.4749081403        1.8265795445        4.8314409672
 H        -9.4373491478        0.5312507141        4.7721548852
 H       -15.4444060514        0.4390043006        6.9710192940
 H       -14.4774439011       -0.7274150643        6.0048963308
 H       -16.1435852966       -0.7488946877        4.5676978305
 H       -15.9915994655        1.0465319282        4.1010014774
 H       -16.6272547312        3.7462588901        5.7314937202
 H       -18.3746782800        3.7271548214        6.1370600815
 H       -17.7683980809        4.9182156790        5.1542440093
 H       -19.1912349291        1.2208496947        2.6229497401
 H       -19.3868462562       -0.1302434421        3.7353259494
 H       -17.9057607243        0.1922368895        2.9390645504
 H       -20.4534925948        2.4470682035        5.0508276650
 H       -19.5276832953        1.9059786235        6.4123731920
 H       -20.5866154005        0.9538894848        5.2503814496
 H       -13.6370744117        1.0773365765        8.2874726116
 H       -12.1277717612        1.0889254981        8.6907280841
 H       -12.5681466700       -0.4254291724        7.9968305489
 H       -11.8541499583        3.1488034494        7.6244833695
 H       -12.0284396030        3.1436706597        5.8564360414
 H       -10.5914256503        2.3965191129        6.8231979445
 H       -12.4700046872        2.7290951025        1.8980106208
 H       -13.4548078189        1.3864553423        1.5035826646
 H       -12.9054197919        2.5300093567        0.2122488651
 H       -10.8790505132       -0.4535221994       -0.4957009397
 H       -12.5273467116        0.0468088635       -0.5877332222
 H       -11.9267172761       -0.9400766687        0.8167461118
 H       -11.1368978070        4.0877102481       -1.8695766082
 H       -11.7439319788        5.0116822109       -3.1956961785
 H       -10.3807968446        5.6446540860       -2.0196256759
 H       -11.4408371936        4.3974317560       -5.3063225463
 H       -11.8658854034        3.0486052094       -4.2350917438
 H       -10.5224937076        2.8023857823       -5.4489101439
 H        -3.6700722308        7.6011437472       -6.4185562168
 H        -5.4362340032        7.9374346382       -6.2957697281
 H        -4.6639552550        7.7754642309       -7.9137227224
 H        -4.3027525679        4.1734350536       -8.3210371782
 H        -2.9812834479        5.0431032141       -7.5447255219
 H        -3.9802155303        5.9631635511       -8.6870448162
 H        -2.5546229377        8.1443898926       -2.2505512595
 H        -3.6255929319        9.5069043076       -1.7723700906
 H        -3.8898262774        8.4589096773       -3.1905600007
 H        -4.0824813236        6.9709315754        0.7870326484
 H        -3.4700660216        8.3516676792        0.4254428483
 H        -2.4902707640        6.9088268590       -0.1790556994
 Na       -6.5891617618        5.1870867859       -2.2844629887
