117

 C        -6.4599249686        8.1832781335       -2.3587314968
 C        -5.6709435895        7.4093316869       -1.2968777455
 O        -6.2883673237        6.8677206044       -0.3890012972
 C        -4.1503251624        7.1558523463       -1.4626481964
 C        -4.0438490996        5.8031497049       -2.1447406981
 O        -4.7967324128        4.9685717116       -1.6301762182
 C        -2.9927244870        5.3923014431       -3.1871611015
 C        -3.2329073388        5.7529542262       -4.6891708045
 C        -4.7169410842        5.6639748319       -5.2106883117
 O        -5.6251238830        5.1724727863       -4.5657895317
 C        -4.9865441579        6.1569876969       -6.6727453266
 C        -6.3492982383        5.7580283440       -7.1298634212
 O        -6.5131075540        5.2134929384       -8.2639072843
 C        -7.5913039859        6.0806090027       -6.4488812861
 C        -8.3754094028        4.7915855971       -5.8547464308
 C        -8.8782086364        4.9891789120       -4.3515738640
 O        -8.5193136134        5.9597903792       -3.6063740478
 C       -10.1041035929        3.9381341493       -3.7301764411
 C        -9.0707308791        2.9053278631       -3.0191813299
 O        -7.9223317369        3.1660205563       -2.7310774194
 C        -9.7012030585        1.5903912057       -2.4979406106
 C        -9.3478344674        1.4177372622       -1.0227556700
 C       -10.3630783484        2.0855340345       -0.0216672922
 O       -10.4832696551        3.2755077085        0.0698166038
 C       -11.2715695144        1.1171243269        0.8360660482
 C       -10.5567987097        0.8643084674        2.2035966535
 O        -9.3442867563        0.9922978816        2.4536744352
 C       -11.3942754512        0.3730329837        3.4363392352
 C       -10.4727261459        0.9457140068        4.5851928917
 C       -11.3112881792        0.4796233837        5.9148071219
 O       -11.1450016697       -0.6837766450        6.1864766563
 C       -12.4189736705        1.3808404870        6.6028159573
 C       -13.7954526915        1.4364913590        5.7573957731
 O       -13.7048944499        2.1217668906        4.7001846389
 C       -14.9081131458        0.4835173716        6.0488557166
 C       -15.9854027986        0.5042067130        4.9682665312
 C       -17.2729050172        1.0598122515        5.5837715474
 O       -17.4602907782        1.1982557284        6.7417468313
 C       -18.3754026317        1.7928856861        4.5594953261
 C       -17.7788892443        3.0988875256        4.0748326661
 O       -17.0286024580        3.1195839330        3.1392729164
 C       -17.9893637343        4.4220862661        5.1226738049
 C       -18.6465172816        0.7234951992        3.4812872621
 C       -19.6935317217        2.0408127791        5.3102191700
 C       -12.6069380737        0.7789347032        8.0245275174
 C       -12.0464818324        2.8303081339        6.6990746740
 C       -12.5524229759        1.9378179365        1.3693908158
 C       -11.7920316481       -0.2410172844        0.4061167983
 C       -10.9199206152        4.6327758375       -2.6128027656
 C       -10.8033211432        3.0997083204       -4.7425537019
 C        -4.7458142697        7.7573093612       -6.8781894623
 C        -3.9907332972        5.3296993211       -7.5006608340
 C        -3.4686766884        8.3241948719       -2.2580554512
 C        -3.3423994194        6.7937669627       -0.1462808475
 H        -7.3761249533        8.6820534533       -1.9253779828
 H        -7.0641439461        7.4859916487       -2.8680449615
 H        -5.9473747526        8.7599874315       -3.0454427922
 H        -2.5982721115        4.3706814751       -3.0468498086
 H        -2.1424151791        5.9189630651       -2.9828711110
 H        -2.7466381623        5.0149098150       -5.4154481944
 H        -2.8721434586        6.6894886960       -5.0073319102
 H        -8.1376572894        6.5327804407       -7.1264451017
 H        -7.3744216451        6.7537289840       -5.6134432389
 H        -7.7284684855        3.9487106968       -5.7131191827
 H        -9.0732276000        4.3759673314       -6.6209474448
 H        -9.2876943009        0.8199224754       -3.1545467703
 H       -10.7543811138        1.4943257836       -2.5254155758
 H        -8.2501766873        1.8024389070       -0.9307273621
 H        -9.3366989132        0.3553600078       -0.8498405698
 H       -11.3865610507       -0.6645089209        3.5405159965
 H       -12.3799685043        0.7636558561        3.6297009965
 H       -10.1646930329        1.9744966755        4.4944993467
 H        -9.5923387295        0.3541688457        4.6425423830
 H       -15.3279990559        0.7212503837        7.0146640433
 H       -14.3938633716       -0.4160700366        6.1908086038
 H       -16.2437169651       -0.4754653813        4.5382750350
 H       -15.6217957216        1.1314574298        4.2066476973
 H       -17.1480499180        4.2498207907        5.8416190347
 H       -18.9978442229        4.6846370721        5.4643482688
 H       -17.6920189043        5.3028151728        4.4295578204
 H       -19.2196199448        1.2083866792        2.5740070561
 H       -19.1983928605       -0.0826926234        3.8617314459
 H       -17.6643776790        0.3097945584        3.0522911133
 H       -20.5572319956        2.1883888552        4.6570555406
 H       -19.6497233133        2.8081135922        6.0870075798
 H       -20.0190923123        1.1525588930        5.8021698697
 H       -13.4932553018        1.0413539258        8.5799315272
 H       -11.8956222512        1.0572212467        8.7736998688
 H       -12.4422592290       -0.2416615604        7.8595378430
 H       -12.9731128889        3.4569356612        6.7170784411
 H       -11.5568562912        3.1460592700        5.8341837039
 H       -11.5685541249        3.1290148337        7.6583912870
 H       -12.2904056128        2.6309156862        2.1935250147
 H       -13.1675445437        1.2737041077        1.9062060095
 H       -13.0311088708        2.3409964161        0.4623502402
 H       -11.0267473904       -0.8216637870       -0.2748815082
 H       -12.7705832896        0.0433208029       -0.1284482258
 H       -11.8681537217       -0.8501336855        1.3067727682
 H       -11.4959746699        3.8201314432       -1.9986291132
 H       -11.6610673414        5.3252966251       -3.1060161761
 H       -10.2460744999        5.0732555108       -1.9482124852
 H       -11.3308498348        3.7469660204       -5.4711079812
 H       -11.4867734759        2.5443204434       -4.1574261757
 H       -10.0700142877        2.4329638535       -5.2438901229
 H        -4.1297700008        8.2308866633       -6.1759322187
 H        -5.7977156268        8.1492121943       -6.7525175133
 H        -4.4220884296        8.0047278006       -7.8768760721
 H        -4.0411790933        4.3409919620       -7.1016889072
 H        -2.9443224786        5.5690090733       -7.3955337092
 H        -4.2325270988        5.4255514010       -8.5812435881
 H        -2.3584792604        8.2792551815       -2.4234733162
 H        -3.8108161238        9.2055417224       -1.5786067050
 H        -3.8633811144        8.3597721735       -3.3051395084
 H        -4.0228182192        6.4766184222        0.6661389385
 H        -2.9854094962        7.7212236272        0.4341723694
 H        -2.7207334726        6.0303931249       -0.5221316798
 Na       -6.8568549992        5.0151597468       -2.3842706486
