117

 C        -6.3574862182        8.0576204430       -2.4856577774
 C        -5.6996433877        7.3789396826       -1.3494700298
 O        -6.2385488717        6.8569969706       -0.4158850259
 C        -4.1528074740        7.0866242672       -1.5221961678
 C        -4.0994882524        5.6486222953       -2.2415323395
 O        -4.8177808021        4.7607557537       -1.9082063738
 C        -3.0885706358        5.2192679730       -3.2503548932
 C        -3.2419482767        5.7917281270       -4.5909998427
 C        -4.7584362308        5.7128944194       -5.1314435415
 O        -5.6336889518        5.0812000747       -4.5657668495
 C        -4.9601111008        6.1940783054       -6.5875022438
 C        -6.4109936631        5.8181911441       -7.1703256617
 O        -6.3749541360        5.1277374298       -8.1768953774
 C        -7.7676326648        6.1717295289       -6.3002254961
 C        -8.3790423962        4.7515228366       -5.7308341058
 C        -8.9456766284        4.8309613278       -4.3766459301
 O        -8.5504326087        5.8028865601       -3.6587991754
 C        -9.9235376602        3.9277087860       -3.7836195598
 C        -9.0603427993        2.8202459154       -2.8526418882
 O        -7.8736737952        3.0016655867       -2.7858986994
 C        -9.7148720352        1.5807620379       -2.3482527973
 C        -9.4163836183        1.2674997681       -0.9211890273
 C       -10.5102677958        1.8922387666        0.0990848625
 O       -10.4437048236        3.1271665598        0.0929634377
 C       -11.3350498543        1.1135430821        1.0364761136
 C       -10.4122122420        0.8921742155        2.3610963235
 O        -9.2681150237        1.0701772541        2.3305812376
 C       -11.2776455318        0.4877241754        3.5241864295
 C       -10.6676649959        1.0840737108        4.7744086341
 C       -11.3644038438        0.5365594736        5.9864811326
 O       -11.1197128550       -0.5836338210        6.4095653918
 C       -12.4363029609        1.4770277395        6.7086188294
 C       -13.5833966754        1.2701488156        5.7402546764
 O       -13.5778825272        1.9910282666        4.7006954755
 C       -14.9097184933        0.4466204995        6.0340385579
 C       -16.0580846534        0.6542197476        5.0267922878
 C       -17.2819083815        1.3255149139        5.5993285860
 O       -17.4841079906        1.2376170439        6.8691022411
 C       -18.3717905753        1.8633715387        4.6739173842
 C       -17.7340746383        3.1456211286        4.0686633189
 O       -17.0656425031        3.0961365129        3.0553924604
 C       -18.0412144696        4.4896505650        4.6752563253
 C       -18.4246323839        0.9492087119        3.4115242832
 C       -19.7497569179        2.0368443395        5.4024440070
 C       -12.7531523146        0.9515408414        8.0800032133
 C       -12.1169267211        3.0511519387        6.7327327122
 C       -12.6157423078        2.1380540778        1.2133216045
 C       -11.7641189220       -0.1845777706        0.2891421806
 C       -10.8304792797        4.6972854324       -2.9016761513
 C       -10.7296212950        3.0692132590       -4.9244330744
 C        -4.8034780581        7.8009381183       -6.8799285450
 C        -3.7836727314        5.4441965558       -7.3327447183
 C        -3.3036049939        8.2363911477       -2.3706442512
 C        -3.4816086391        6.7837430630       -0.1782199627
 H        -7.0431434403        8.8558529692       -2.3000029634
 H        -7.0864177132        7.4078409673       -2.9393153673
 H        -5.5935116688        8.2843470152       -3.2676338697
 H        -2.9262537740        4.1908065262       -3.2654891080
 H        -2.0407945959        5.6156341809       -2.9605703216
 H        -2.7587768883        5.1254317919       -5.2839057539
 H        -2.8320232155        6.7192151376       -4.7213577568
 H        -8.5533735298        6.6239354448       -7.0408135008
 H        -7.5061791320        6.8530611533       -5.5499354672
 H        -7.5999689652        3.9202280365       -5.7271015947
 H        -9.0437019181        4.3236549419       -6.5099905407
 H        -9.3534416350        0.8660488818       -3.0549298404
 H       -10.7771209170        1.6051770351       -2.4465352627
 H        -8.4500350115        1.6991848425       -0.7226611759
 H        -9.2561940886        0.2181852526       -0.8924088550
 H       -11.2441187217       -0.5768623557        3.6110738193
 H       -12.2694705835        0.8136802015        3.4478086002
 H       -10.8117556532        2.1481224701        4.9010531459
 H        -9.5225778692        0.8550122579        4.8434772931
 H       -15.1411419689        0.7112116090        7.0552832239
 H       -14.5755707109       -0.5695306956        6.1366123427
 H       -16.4623984239       -0.2458815320        4.5884456027
 H       -15.5209430125        1.2397343575        4.1930447627
 H       -17.7823346253        4.2293821344        5.7687179396
 H       -19.1355376012        4.6790704790        4.4614373342
 H       -17.4552214998        5.3568518598        4.3059976948
 H       -19.2361224127        1.3569283790        2.8241644349
 H       -18.6619949430       -0.1262512627        3.6216868241
 H       -17.5025708635        1.0103148898        2.7724492515
 H       -20.7396227045        2.3275495053        4.8902679406
 H       -19.5516844344        2.7697999474        6.2177318620
 H       -20.0807263325        1.0497167259        6.0606537283
 H       -13.4736864759        1.6201645337        8.5548286709
 H       -11.9682486678        0.9382151142        8.8013484190
 H       -13.1038314676       -0.0968114463        7.9993797370
 H       -12.9170749112        3.7813011099        6.6763774520
 H       -11.4774143602        3.2127176038        5.9324529304
 H       -11.5684174373        3.2873991407        7.6528396000
 H       -12.5084790566        2.9389529136        1.8856543124
 H       -13.3478899721        1.4867863751        1.7666043708
 H       -12.9303893388        2.3005584923        0.1274475042
 H       -10.9527331961       -0.7613086019       -0.0788276187
 H       -12.4479397293        0.2427622848       -0.5103377352
 H       -12.2433190255       -0.8215268073        1.0383641282
 H       -11.6597613997        4.0289035030       -2.8080282251
 H       -11.1481272230        5.6450590896       -3.3269119223
 H       -10.4263505310        4.8263719651       -1.9192630583
 H       -11.2659603739        3.8192239836       -5.4776974244
 H       -11.4172888996        2.4167046846       -4.3935408554
 H       -10.0856478124        2.5558296563       -5.6009990556
 H        -4.0857729780        8.4740492623       -6.3487388577
 H        -5.7266646127        8.0813950678       -6.6722240561
 H        -4.7315733881        7.9699169063       -7.9281982829
 H        -3.4515119054        4.5203453851       -6.8361276539
 H        -2.9162495980        6.0384108294       -7.3828977326
 H        -4.0519853395        5.3293285212       -8.2794962150
 H        -2.1993052298        8.0832594409       -2.3883455288
 H        -3.5541715371        9.1122576979       -1.7157495194
 H        -3.5140985277        8.2966519504       -3.4347249088
 H        -4.1539007378        6.1703795706        0.4209857562
 H        -3.4892077779        7.6383927722        0.5013145692
 H        -2.6415787605        6.1904019940       -0.4440022635
 Na       -7.0352116053        4.9653717555       -2.3954673118
