117

 C        -6.3536652402        8.0670228061       -2.6305234901
 C        -5.6178313579        7.2718696693       -1.5160770007
 O        -6.2458068504        6.9023430700       -0.5501317963
 C        -4.0948169859        6.8575695373       -1.5549911066
 C        -4.0883509915        5.4454162087       -2.2586183717
 O        -4.9805811828        4.6595323039       -2.0205701736
 C        -2.9497756386        5.1345150794       -3.2354336232
 C        -3.2715684495        5.8781689979       -4.5468520971
 C        -4.7274439512        5.7265872340       -5.1172423812
 O        -5.5974155991        5.1452509315       -4.5166431352
 C        -4.9990509167        6.2219552604       -6.5766329923
 C        -6.3350240978        5.6467823467       -7.0885194621
 O        -6.4820541080        5.1021957145       -8.0964410057
 C        -7.6138178714        6.0168194917       -6.3168433091
 C        -8.2574535834        4.7710155720       -5.8785156126
 C        -8.8967832120        4.9700546071       -4.5078046336
 O        -8.5929922567        5.7882629319       -3.7057247891
 C        -9.8337063386        3.7965529080       -3.8264259413
 C        -9.0492827826        2.6535963934       -2.9301479703
 O        -7.8540109508        2.7742478880       -2.7012207905
 C        -9.8124430152        1.5076079325       -2.2947777245
 C        -9.3746375721        1.1130007500       -0.7520598565
 C       -10.3537781629        1.9824957844        0.1106780900
 O       -10.4004143669        3.1740049132        0.0052680654
 C       -11.4054871461        1.1582537743        0.9416338218
 C       -10.4748855276        0.9256940921        2.2807217849
 O        -9.2971588850        1.1069251104        2.1260038304
 C       -11.1200267147        0.4762790652        3.6299608920
 C       -10.6895465066        1.2297904960        4.9406723280
 C       -11.2968701125        0.6877877101        6.2830916809
 O       -11.1930414271       -0.4456714317        6.6794549045
 C       -12.5035101866        1.5081615609        6.8518991587
 C       -13.5981644277        1.3924045724        5.6590854180
 O       -13.5780084963        1.8237286299        4.5588994827
 C       -14.9025320679        0.4848791511        6.0510842974
 C       -16.0025081921        0.7661930940        5.0774252295
 C       -17.2908595368        1.3277407191        5.7381078586
 O       -17.5066748983        1.3824181823        6.9464822980
 C       -18.2839122968        1.9145231573        4.6851730772
 C       -17.7701371286        3.2758413627        3.9822250478
 O       -17.0337085153        3.1569580360        3.0285835236
 C       -18.1252514946        4.6900243615        4.4265476621
 C       -18.5076983603        0.9348293346        3.3943819896
 C       -19.5864015176        2.0196732549        5.3554857186
 C       -12.9149878082        1.0869819587        8.2709353084
 C       -12.1325942382        3.0445079411        6.8946839740
 C       -12.5853274124        2.0906875120        1.1595492435
 C       -11.8296001563       -0.1949585198        0.3142202930
 C       -10.9745940584        4.6793644993       -3.0140932806
 C       -10.6407847894        3.0373946712       -5.0585914469
 C        -4.8727216823        7.7208379993       -6.7308346551
 C        -3.8029380158        5.6675655910       -7.4546524444
 C        -3.2810410523        7.9499337602       -2.2879276491
 C        -3.5413455928        6.8517830222       -0.1663595351
 H        -6.6619453965        8.9859366066       -2.2113253808
 H        -7.3726348700        7.7464151186       -2.9936914022
 H        -5.7118799238        8.2705123351       -3.5441640947
 H        -2.9457783546        4.0651857367       -3.4978843391
 H        -1.8337398719        5.2644675271       -2.9414150384
 H        -2.6241287009        5.6230753487       -5.3050278702
 H        -3.3221000733        7.0496024584       -4.5178453415
 H        -8.2268594527        6.6089642651       -7.1263764570
 H        -7.3589338611        6.6902576673       -5.4636809522
 H        -7.5681795587        3.8563680362       -5.9380433703
 H        -8.9816730925        4.4589621778       -6.6201120685
 H        -9.6326926709        0.6899000327       -2.9849708409
 H       -10.9023197177        1.7108661164       -2.3155118056
 H        -8.3547915076        1.2000702680       -0.6929645362
 H        -9.5562201622        0.0244578145       -0.6176906062
 H       -10.8884824923       -0.6141426273        3.7673254279
 H       -12.2154424305        0.6097065728        3.5336146162
 H       -11.0567616656        2.2880548754        5.0198817836
 H        -9.5600307375        1.2097237300        5.0073062967
 H       -15.1535896746        0.5329072166        7.1266696512
 H       -14.4691807925       -0.5678382373        5.9859532018
 H       -16.2938323742       -0.1001299617        4.4167239145
 H       -15.4696536138        1.4855103290        4.3235576608
 H       -18.4201021385        4.5588411327        5.4552927928
 H       -18.9919265780        4.8960015666        3.7576556743
 H       -17.3836724664        5.4591023692        4.3329959725
 H       -19.4443591462        1.0829679886        2.9623700821
 H       -18.4876185120       -0.1593850092        3.7341105384
 H       -17.7630165992        1.0831491006        2.6721047767
 H       -20.4609705860        2.5038308255        4.7510763714
 H       -19.4799784193        2.6897486496        6.3114918499
 H       -19.9864055594        1.0831336086        5.7619195239
 H       -13.3768741777        1.9649218585        8.7447793528
 H       -12.0327802076        0.9092661422        8.9324404042
 H       -13.5688695618        0.1715664831        8.3599019765
 H       -12.9390907111        3.6984075850        7.0547874665
 H       -11.5774985036        3.3494509238        5.9317424185
 H       -11.4316838431        3.2101784715        7.6844379195
 H       -12.3183117634        2.9593568567        1.7837107783
 H       -13.2824064065        1.5524772554        1.8670926166
 H       -12.9734790968        2.3085139604        0.1727820979
 H       -11.1232455331       -0.9133144475        0.5653007866
 H       -11.9735343864       -0.0677846332       -0.6872461399
 H       -12.6895021025       -0.4769601561        0.9282730603
 H       -11.9602935662        4.2758995622       -3.0815910320
 H       -10.9239349724        5.6245393642       -3.4661708774
 H       -10.6370041830        4.8639818337       -1.9555424990
 H       -11.0604366676        3.8939149735       -5.4947302726
 H       -11.4131067887        2.3380654563       -4.7065683951
 H       -10.0411698558        2.6349153172       -5.8321533506
 H        -3.8784790337        8.0301839794       -6.4062653161
 H        -5.6715992757        8.3090427212       -6.2171619292
 H        -4.9625562094        7.9299823145       -7.7808010979
 H        -3.5913275868        4.6780633045       -7.1448675578
 H        -2.8908980129        6.1999924873       -7.4526173941
 H        -4.1564940436        5.7243273689       -8.5062819373
 H        -2.2477427376        7.6281668105       -2.3292222596
 H        -3.3282042916        8.7638087306       -1.6894188341
 H        -3.4719956794        8.0515339040       -3.3342640517
 H        -4.0482292603        6.0893789409        0.3986199399
 H        -3.9896416939        7.6368407025        0.2595836690
 H        -2.4572785852        6.6446295882       -0.0768779766
 Na       -7.0790722626        4.9592390026       -2.3045884404
