117

 C        -4.0334241226        0.6618678956        9.1967449064
 C        -4.4162769747        2.1936165265        9.0005428029
 O        -3.6114226416        3.0819122187        8.6793401147
 C        -6.0447391871        2.6654129409        8.9967769292
 C        -6.2924292225        2.7085563862        7.5359542967
 O        -6.8689067047        1.8671273482        6.8934853782
 C        -5.6849014956        3.9672425716        6.7090696945
 C        -5.8732449502        3.6870514426        5.1829356237
 C        -6.0998144915        5.0133099346        4.4459298867
 O        -6.8562391552        5.8012622598        4.9319344598
 C        -5.4298837093        5.1926666714        2.9608685998
 C        -5.6058604030        3.8735332449        2.1848425635
 O        -4.8455143378        2.9630923459        2.3816283279
 C        -6.8862537865        3.6323941039        1.3660864112
 C        -6.5724233302        2.9925691755       -0.0294671938
 C        -7.9051152022        2.4674701651       -0.7282020536
 O        -8.4329763479        3.2094232425       -1.5624131539
 C        -8.4092355576        0.9640549119       -0.3541602556
 C        -9.6405215256        1.1253758600        0.6047757885
 O        -9.4365390017        1.4601790121        1.7569065196
 C       -11.0255924307        0.7508435072       -0.0080347353
 C       -12.2413664681        1.5575964600        0.4976524045
 C       -12.2724700097        3.0291086899        0.2112916492
 O       -11.2599128786        3.5871819221       -0.2419430921
 C       -13.6907253006        3.7088705720        0.0331433582
 C       -13.8979679798        3.7055800552       -1.5913599647
 O       -12.9961127001        4.0619235911       -2.3624307671
 C       -15.3317979840        3.7271462439       -2.0313538318
 C       -15.4983326739        4.0662115441       -3.5212140546
 C       -14.9935697316        5.5127525780       -3.9148225497
 O       -14.6437717100        6.2241340395       -3.0065818193
 C       -14.9713122633        6.0797046579       -5.3812081938
 C       -13.5895828152        5.9050906072       -5.9384805307
 O       -13.3491452616        4.8844339812       -6.5746524840
 C       -12.4485555129        6.8521107384       -5.8024653606
 C       -11.0217055749        6.2670003065       -6.1951323724
 C       -10.7465251935        4.9625281377       -5.3850217326
 O       -10.7009627831        5.0470433666       -4.1260697223
 C       -10.1836053859        3.6366127479       -6.0405226013
 C       -11.1796072627        2.5098687963       -5.5437708609
 O       -11.3451093013        2.3777117360       -4.3600015362
 C       -11.8371552496        1.5295525696       -6.4333390631
 C       -10.1333464003        3.7127470560       -7.5893280367
 C        -8.7162563146        3.4154450972       -5.6172978895
 C       -15.9322029915        5.2308659188       -6.2744578040
 C       -15.3823257104        7.5373552616       -5.3538697049
 C       -14.9685305759        3.0874974928        0.8133719957
 C       -13.5886670957        5.2323229291        0.4594014635
 C        -8.7852392378        0.4512754445       -1.7199745897
 C        -7.1943804657        0.1216588939        0.3037174397
 C        -6.1905575269        6.3695221039        2.2883538304
 C        -3.9188606748        5.4600606340        3.0845560826
 C        -6.8850920582        1.6269435398        9.7452375916
 C        -6.0301632673        4.0241592096        9.8425517886
 H        -4.3829477489        0.4532032922       10.2099481942
 H        -2.9361078327        0.5565066846        9.1566619076
 H        -4.6832273968        0.0945346528        8.6029726493
 H        -4.6587238867        4.2325258164        6.8738273823
 H        -6.2528637336        4.8393510617        7.0898353248
 H        -6.7062008145        3.0478368531        4.9663226215
 H        -5.0762889874        3.1752872444        4.7508197338
 H        -7.4886772878        4.4942439994        1.2269106270
 H        -7.4860875770        2.9866335521        1.9691050010
 H        -5.9006108083        2.1972622704        0.0898129589
 H        -6.1726381106        3.7441606395       -0.7605917009
 H       -11.1253298933       -0.2844804309        0.3139255650
 H       -11.0414541313        0.7566765670       -1.1395865050
 H       -12.2717652810        1.4165261880        1.6044360722
 H       -13.1684198845        1.0555431407        0.1234010514
 H       -15.8893525471        4.3002330119       -1.3045034529
 H       -15.7177017919        2.6259327755       -1.9729374587
 H       -16.5108549983        3.9729850570       -3.9359612189
 H       -14.9145012119        3.3685699829       -4.1906443833
 H       -12.4089385396        7.2528788984       -4.8215417968
 H       -12.5437433975        7.7222174489       -6.3903892942
 H       -10.1973106250        6.9162897648       -5.9283276264
 H       -11.1606613597        6.1101240861       -7.2653749578
 H       -11.2027486072        1.1883355989       -7.2583418923
 H       -12.7068228906        1.8180513834       -6.9841356267
 H       -12.2506010558        0.6957744118       -5.7375481178
 H       -10.0863811154        4.7299199202       -7.9358527818
 H       -11.0155593135        3.3018021979       -8.0515826107
 H        -9.2508910954        3.3504153053       -7.9807246637
 H        -8.6358432184        3.2426850502       -4.5557331530
 H        -8.1181389462        4.2247298058       -5.8965931340
 H        -8.3709304894        2.4436467576       -6.0861697374
 H       -15.5986088391        4.2313625269       -6.1991476520
 H       -15.8474319812        5.4886444567       -7.2968906057
 H       -16.9544500884        5.3339729413       -5.8903824774
 H       -15.2572456085        7.9948626670       -6.2556660929
 H       -14.6916427219        8.0304943015       -4.6525483956
 H       -16.4089971885        7.6351657751       -5.1804662913
 H       -14.8369338509        3.0448692181        1.8744605875
 H       -15.3447132507        2.1093791974        0.5427860510
 H       -15.7446361492        3.7966319660        0.7067203608
 H       -13.8467124886        5.1700840490        1.4713420858
 H       -14.2794941846        5.8489691818       -0.0631318635
 H       -12.6349898434        5.6632862555        0.4802306367
 H        -9.3520874270       -0.3984646673       -1.6997361131
 H        -7.8079134549        0.3775377003       -2.3778293748
 H        -9.4662973668        1.0720543422       -2.2790011289
 H        -6.6809161054        0.6165620079        1.0669970439
 H        -6.5271343807       -0.1199777398       -0.4783245993
 H        -7.5771470087       -0.8199373986        0.7625981538
 H        -6.3280801396        7.1578548913        3.0658204246
 H        -7.1970076721        6.2947127184        1.9379450790
 H        -5.5784634857        6.8278356310        1.5235025253
 H        -3.5717474520        5.5027901614        4.0831634121
 H        -3.6654321092        6.3732818291        2.5567954579
 H        -3.2926880007        4.6863198089        2.7024708608
 H        -6.9027101740        0.6149799884        9.3282873867
 H        -7.9195636372        1.9357342072        9.8641359887
 H        -6.4717323651        1.6198111885       10.7765133406
 H        -4.9852381089        4.2587152752       10.0327417601
 H        -6.5934885595        3.9511023666       10.7674296299
 H        -6.3400714799        4.8659173776        9.2437012495
 Na      -10.7828829876        3.6108512212       -2.4517212557
