117

 C        -5.9551744327        8.1930791507       -2.7591425037
 C        -5.6790022900        7.2756340817       -1.6162706358
 O        -6.5253761499        6.6888833297       -0.9540929094
 C        -4.1715858539        6.8283723428       -1.5478731699
 C        -4.0222688144        5.3280306382       -2.2758387374
 O        -4.6646849062        4.3980784579       -1.8520359557
 C        -3.0350791963        5.0165472176       -3.3789304850
 C        -3.0466985977        5.6839485677       -4.7443427147
 C        -4.5539070569        5.6166897025       -5.3255396564
 O        -5.4441413242        5.4184306676       -4.5259563315
 C        -4.9111012546        6.1187322579       -6.7897832357
 C        -6.2848212497        5.6214477440       -7.1540650528
 O        -6.3375953921        4.8648451610       -8.1294008084
 C        -7.5040683117        5.9058002698       -6.2682916472
 C        -8.3432408289        4.6734746362       -5.9608883649
 C        -8.9301575732        4.7865945666       -4.4884433761
 O        -8.6136381044        5.7004019381       -3.6671566718
 C        -9.8229563035        3.6681126413       -4.0013399841
 C        -9.1218460165        2.5872155087       -3.0071586066
 O        -8.0121279293        2.8502510907       -2.6054481759
 C        -9.8781611188        1.3672824057       -2.5552859420
 C        -9.6168798059        1.1049422426       -1.0970329958
 C       -10.4643466861        1.9742904448       -0.0028256028
 O       -10.3014116785        3.1680321276       -0.0661485146
 C       -11.4008445617        1.3535549741        1.0990765413
 C       -10.3457824000        0.9489383874        2.3623217995
 O        -9.1767052637        1.1193599157        2.2175765522
 C       -10.9575485273        0.2409893614        3.7145613122
 C       -10.7193243003        1.2165734509        4.9557469502
 C       -11.3528172489        0.9943509921        6.3843981764
 O       -11.0439724748        0.0049543554        6.9930647072
 C       -12.5441616034        1.7875983968        7.0197300007
 C       -13.7178774430        1.5093291644        5.8929059517
 O       -13.3764396334        1.8247692970        4.7114744425
 C       -15.0082726486        0.6482476065        6.1080195272
 C       -16.0491480691        0.7730763480        4.9714296305
 C       -17.2394413442        1.6506856511        5.4726605480
 O       -17.3567027686        1.7055066823        6.7251383566
 C       -18.3962859176        2.0743291646        4.5448085307
 C       -17.7906848865        3.3396767969        3.8301300790
 O       -16.8277451541        3.2266933936        3.1108970436
 C       -18.5011016453        4.6832198915        4.1607884798
 C       -18.5873754665        0.8330743272        3.6329807338
 C       -19.7156509304        2.4272598037        5.3549734776
 C       -13.0615327161        1.1520533413        8.3346176003
 C       -12.2260334289        3.3018025779        7.0971852841
 C       -12.7016197151        2.2167125886        1.4301565172
 C       -11.8595003178       -0.1583918709        0.5643624716
 C       -10.9917851127        4.1925214202       -3.0227555808
 C       -10.4122185356        2.7788065560       -5.1927911584
 C        -5.0324879079        7.7055236611       -6.3748213952
 C        -3.9459001008        5.8590744017       -7.8620992859
 C        -3.1428543320        7.8303825066       -2.1018555160
 C        -3.8720910509        6.5027491909        0.0105438593
 H        -5.5907279075        9.2588791934       -2.7888105737
 H        -6.9872919851        8.3697810285       -2.9146559493
 H        -5.6559780431        7.6217534363       -3.6106713105
 H        -2.9254457700        3.9447238455       -3.3871212291
 H        -2.1116426293        5.4104258924       -2.9924757474
 H        -2.3848324293        5.1425949020       -5.5549285213
 H        -2.8214518314        6.6793664168       -4.6847835342
 H        -7.9926676496        6.5833747335       -6.9287781918
 H        -7.1784711948        6.4491425371       -5.4424284656
 H        -7.7311878865        3.8299221119       -6.0714889989
 H        -9.0832003048        4.5062472541       -6.7670791740
 H        -9.6471433613        0.4441119894       -3.1634745925
 H       -10.9473691916        1.5835794070       -2.6819086245
 H        -8.5224796056        1.4747413967       -0.8937617423
 H        -9.4273651335        0.0314886597       -1.0579037077
 H       -10.4897479064       -0.7648742025        3.7678501018
 H       -12.0375725583        0.1384835997        3.5218688330
 H       -11.0786532286        2.1668902528        4.7315149779
 H        -9.6753978718        1.1484327136        5.1364131804
 H       -15.3836674989        0.9943379698        7.1041535266
 H       -14.6858278632       -0.3440584156        6.3868034244
 H       -16.2462503744       -0.2694940418        4.6479995623
 H       -15.7078790751        1.2517319725        4.1105947046
 H       -19.4339882894        4.6473532136        4.7550594805
 H       -18.6405776058        5.1643857024        3.2211208348
 H       -17.6837704424        5.1446661650        4.6987646957
 H       -19.4589243794        0.9685482918        2.9679710588
 H       -18.8455157826       -0.0067593088        4.2139195158
 H       -17.6800573740        0.6977938806        3.0202826196
 H       -20.2908329489        3.0864677545        4.8034064976
 H       -19.5601687155        2.9971636933        6.1546016873
 H       -20.1852885565        1.5151164856        5.7893523351
 H       -14.0528237353        1.5601146491        8.6974720399
 H       -12.3697036933        1.2988709244        9.1568092372
 H       -13.2125445849        0.0800496181        8.1930372080
 H       -12.9042210005        3.6272031221        7.9580179612
 H       -12.4361213824        3.8938728699        6.2679260376
 H       -11.1144993064        3.5565118828        7.2760010965
 H       -12.4289906242        3.2486972821        1.3754872267
 H       -13.0345324537        1.9959946946        2.4067872054
 H       -13.3929319229        2.0411111273        0.6067406414
 H       -11.5639293359       -0.8455877842        1.3760571417
 H       -11.2366908225       -0.3512134126       -0.3785816479
 H       -12.9347380319       -0.0469587208        0.4850172583
 H       -11.7676722425        3.3698478312       -2.8548447569
 H       -11.4752977908        5.1263090328       -3.5046402163
 H       -10.5102016490        4.6080209985       -2.1242117651
 H       -10.8041799669        3.3128842811       -6.0874916563
 H       -11.0592318057        2.0382919897       -4.7647629467
 H        -9.4875654311        2.2952110586       -5.5681391904
 H        -3.9763675232        8.1444674622       -6.3494293684
 H        -5.4265414974        7.8202647947       -5.4069623450
 H        -5.7309330053        8.3043914621       -7.0404280233
 H        -3.9034766722        4.7898756224       -8.3422755732
 H        -2.9347245547        6.0394733233       -7.3402638569
 H        -3.9435489860        6.6230689673       -8.5909367833
 H        -2.3143298130        7.3653090399       -2.6026567138
 H        -2.7004281010        8.4451306845       -1.2579340346
 H        -3.5500209987        8.4146179036       -2.8959315526
 H        -4.2414369506        5.4953378358        0.3099309899
 H        -4.3228554985        7.2509730757        0.7978709269
 H        -2.7790136580        6.3544420640        0.0680469242
 Na       -7.1826646978        4.8836882502       -2.0382707472
