117

 C        -5.6660923074        8.5424814722       -2.6948748329
 C        -5.4846725660        7.2597142696       -1.9062626088
 O        -6.5583506424        6.7878402320       -1.5428375796
 C        -4.1424731158        6.5390157171       -1.5260372566
 C        -3.8899607196        5.1013289533       -2.4202369061
 O        -4.6830876143        4.1508571854       -2.2801864930
 C        -2.7586258011        4.9868340540       -3.3609014202
 C        -2.9850913962        5.1620393394       -4.8799487740
 C        -4.5074173713        5.7026995978       -5.2213858710
 O        -5.4565107448        5.6347111657       -4.4763383652
 C        -4.9181584455        6.3145427229       -6.5717097349
 C        -6.2352040845        5.4603149022       -7.0115035524
 O        -6.1994586626        4.5624372295       -7.8612841316
 C        -7.5681401652        5.8148431379       -6.2777073614
 C        -8.4602112807        4.6423590378       -6.0425998729
 C        -8.9062546861        4.5211686419       -4.5301623929
 O        -8.4936919829        5.3433875588       -3.8169353698
 C       -10.0090720578        3.3084491870       -4.0740126407
 C        -9.2279273919        2.4187094343       -2.9152792825
 O        -8.1632760289        2.8024811970       -2.4319533808
 C        -9.8140348888        1.0657756784       -2.4557957342
 C        -9.8023911604        0.6230545750       -0.8919302892
 C       -10.6062834557        1.6459866610        0.0287521580
 O       -10.5961890790        2.7733868852       -0.3560541330
 C       -11.2383022089        1.3037541987        1.4570604064
 C       -10.2992463362        0.9712240029        2.5656946838
 O        -9.1019721963        1.1771546851        2.5435555049
 C       -10.8583345495        0.5768619379        3.9481361206
 C       -10.4985107547        1.7730553696        4.9241773789
 C       -11.0853417441        1.2777380464        6.3088201422
 O       -10.5554675228        0.3629661003        6.8888510277
 C       -12.5329936198        1.8529141527        6.8087627741
 C       -13.8069706905        1.6728890517        5.8730913104
 O       -13.7427398618        2.2394930265        4.7910157016
 C       -15.1343006164        0.8854745981        6.1506829403
 C       -16.1983287315        1.1003195993        5.0788535693
 C       -17.4002068136        1.9704988127        5.5692823908
 O       -17.3908497982        2.5003884946        6.6340393537
 C       -18.5125531725        2.2652008324        4.5666361590
 C       -17.8055144810        3.3551420692        3.6724399088
 O       -16.7968469196        3.0231218890        3.0905430355
 C       -18.6446009921        4.7234784181        3.5062163620
 C       -18.8504537330        1.2102799067        3.4826000645
 C       -19.8178531493        2.5387965679        5.3837059546
 C       -12.8971432016        1.1792041588        8.2706335576
 C       -12.2832022410        3.3567727913        6.8921646264
 C       -12.1993394294        2.5104870609        1.9536060112
 C       -12.0831452519        0.0540864087        1.2000387485
 C       -11.2566303225        4.0544738175       -3.4767324230
 C       -10.3717289951        2.3713526832       -5.2336725118
 C        -5.2592023464        7.8934601512       -6.6453612005
 C        -3.8562546736        5.9721295899       -7.7325018243
 C        -2.9377711590        7.4865160777       -1.6602429196
 C        -4.3190252520        6.1289285477       -0.0359895648
 H        -4.7079719324        9.2230002629       -2.6528030602
 H        -6.5901481624        9.1283052531       -2.5099780232
 H        -5.7532844417        8.2744131002       -3.7411651493
 H        -2.4913223152        3.8503514824       -3.2307553525
 H        -1.9535627495        5.6426134173       -3.1516956002
 H        -2.7577749271        4.1821616439       -5.5600756523
 H        -2.3930648159        6.0282728257       -5.2210337717
 H        -8.0777928205        6.5427516510       -6.9360791286
 H        -7.3497494929        6.4057579583       -5.2917759635
 H        -7.9142821143        3.7159952794       -6.2974165866
 H        -9.3307295790        4.6848386066       -6.7728781031
 H        -9.2872272186        0.2889603416       -3.0463554567
 H       -10.8522572272        0.9448412221       -2.7720778289
 H        -8.7648358438        0.6104003109       -0.4649691279
 H        -9.9913272898       -0.3932248306       -0.8485549821
 H       -10.3710639819       -0.4278116872        4.1364254022
 H       -11.9683161886        0.4199565052        3.8261698378
 H       -11.0800430213        2.6507950788        4.5985953865
 H        -9.4226968166        1.8175980715        5.0397418886
 H       -15.5726300789        1.4551707909        6.9991919093
 H       -14.8273144336       -0.0328250105        6.6981522477
 H       -16.5431510011        0.1015123364        4.5872279232
 H       -15.7528814420        1.5935301687        4.1883674638
 H       -19.2751100056        4.7040543113        2.6160336463
 H       -18.0078157702        5.5408233328        3.3404876382
 H       -19.1395117730        4.8957758481        4.4842502702
 H       -19.6698711303        1.5039443545        2.7544281332
 H       -19.2462382928        0.4346883989        4.0024379912
 H       -17.9561136168        0.8853652393        2.9633717206
 H       -20.6342532403        2.4816070126        4.6537068994
 H       -20.0718328404        3.4626608374        5.7404679334
 H       -19.7396410238        1.7745745244        6.2167086415
 H       -13.9339405923        1.4020745456        8.5510027194
 H       -12.0807722554        1.3460114776        8.9896764188
 H       -13.0603140113        0.1124698329        8.1663886997
 H       -13.2511502202        3.7866774222        7.0967935222
 H       -11.9338708619        3.7733937992        6.0507963482
 H       -11.4544279605        3.6239157118        7.5504772002
 H       -11.5730214258        3.4431848330        2.0988523122
 H       -12.8421628719        2.1943943238        2.7624480544
 H       -12.7879992621        2.8168382461        1.0574547832
 H       -12.9452918009        0.1187692702        1.7780716431
 H       -11.4699924793       -0.7024706432        1.6043194529
 H       -12.1920092510        0.0081780751        0.1995472180
 H       -11.8764029348        3.2633642814       -3.0083018828
 H       -11.8464199403        4.3312575748       -4.3379700348
 H       -11.0652192782        4.9666176448       -3.0732155942
 H       -11.0266796409        2.8825715476       -5.9392483395
 H       -11.0156434784        1.7022248496       -4.7298924593
 H        -9.5451727106        1.8121783328       -5.6944299340
 H        -4.5321944398        8.5048423049       -6.1354077609
 H        -6.2011856793        8.0723953431       -6.1278644948
 H        -5.3474420440        8.2719004647       -7.6881627349
 H        -4.0280834102        4.9808818304       -8.1393341223
 H        -2.8344403066        6.1047431145       -7.4499413235
 H        -4.0439757455        6.5956176688       -8.5692970623
 H        -2.4136507154        7.3114913982       -0.7724665291
 H        -3.1859435739        8.5947739929       -1.6712748540
 H        -2.2808059966        7.3030222695       -2.4451557260
 H        -5.3309345264        5.8580195042        0.1756207703
 H        -3.9243287422        7.0619496696        0.5288247337
 H        -3.7064845320        5.4057530150        0.3681007014
 Na       -6.8753952582        4.5520569432       -1.8262169312
