117

 C        -5.3122741797        8.6140996479       -2.6852570755
 C        -5.5031504242        7.2181747351       -2.0171942174
 O        -6.5706027222        6.8016898238       -1.6899807548
 C        -4.1671646370        6.4147548162       -1.5287272515
 C        -4.0358900737        5.1931914662       -2.5283533396
 O        -4.7240141817        4.2316185724       -2.3989000818
 C        -2.7884566049        5.0445439469       -3.4796048055
 C        -3.2396347735        5.2914438125       -4.9315252270
 C        -4.6147544849        5.8542022156       -5.1294054856
 O        -5.4090309063        5.8083739121       -4.2238328424
 C        -5.0011798120        6.2611950036       -6.5935972511
 C        -6.2524378993        5.4164512884       -6.9310766260
 O        -6.0611065901        4.5002605538       -7.6926905504
 C        -7.5351311695        5.6981368425       -6.2020270806
 C        -8.5213841937        4.5767098286       -6.0916904286
 C        -8.9727655783        4.3960958735       -4.6031791257
 O        -8.4432005200        5.1174414176       -3.7251042269
 C        -9.9296246560        3.2583839093       -4.0209366825
 C        -9.3772845670        2.3702406548       -2.7133245879
 O        -8.2712406384        2.5931456706       -2.2713055683
 C        -9.9749703470        0.9884141250       -2.2880006860
 C        -9.7608991360        0.6135975815       -0.8513642813
 C       -10.4988078887        1.6730396715        0.0897717936
 O       -10.7497853718        2.7073413473       -0.5689842480
 C       -11.2659707377        1.3254254456        1.4194249383
 C       -10.1291730027        1.1165387154        2.6549164524
 O        -8.9889779819        1.1658293905        2.4211284700
 C       -10.6772767021        0.6319897472        3.9967461210
 C       -10.5806588247        1.7841565762        4.9600084010
 C       -11.1588190539        1.3181025094        6.2577465575
 O       -10.5238458352        0.4963352693        6.9005723312
 C       -12.5253561910        1.9567406842        6.7531207184
 C       -13.7905945907        1.7275394433        5.8681775619
 O       -13.7655948067        2.3059604189        4.7443213955
 C       -15.1516765833        1.0034285417        6.2330139734
 C       -16.2085764159        1.1124031822        5.2261467264
 C       -17.3990449097        2.0261935083        5.4997815790
 O       -17.3748096694        2.6074130966        6.6621397321
 C       -18.5957665814        2.2822694168        4.5492363469
 C       -17.9839573615        3.4350288501        3.6108096418
 O       -16.9341875184        3.1897991697        3.0164031027
 C       -18.6303399885        4.7316560837        3.3054138914
 C       -18.7869436979        1.1016646125        3.5881443377
 C       -19.8527351394        2.7548030620        5.2354430905
 C       -12.7533978001        1.2021326361        8.1319637734
 C       -12.3208671802        3.5094394538        7.0366102755
 C       -12.0852689033        2.6050832293        1.8023128049
 C       -12.2726120347        0.0776390803        1.3258183611
 C       -11.1537874584        4.0300481363       -3.5178386714
 C       -10.2026254864        2.2096073309       -5.2429631447
 C        -5.2038399839        7.7161666370       -6.5548874698
 C        -3.8438771946        5.8821735015       -7.6413239733
 C        -2.8493555818        7.2951940725       -1.6700555919
 C        -4.4323225810        5.9990092868       -0.1150850302
 H        -4.3434603836        9.0082490960       -2.5002043274
 H        -6.1288700899        9.3305293490       -2.4701374522
 H        -5.3793772171        8.5577503362       -3.8270210641
 H        -2.5457802482        4.0514795773       -3.4688166711
 H        -1.9223866320        5.7123103435       -3.3325229679
 H        -3.5094459642        4.2622942645       -5.3819393777
 H        -2.5605663997        5.8156471649       -5.6245343123
 H        -7.9777974664        6.4399652491       -6.8990683988
 H        -7.4212032481        6.1780398110       -5.3391565283
 H        -8.1492112270        3.6064990702       -6.3256422163
 H        -9.4504178418        4.7830704910       -6.7043304014
 H        -9.5953137638        0.2478489714       -3.0528713943
 H       -11.0735284303        1.0067248106       -2.4677501501
 H        -8.6492154586        0.4317353949       -0.6981537107
 H       -10.1045092771       -0.4161076273       -0.6045883081
 H        -9.9988182681       -0.2347088817        4.3557013355
 H       -11.6841243841        0.2397156889        3.6994422518
 H       -11.0154272648        2.6655636306        4.6362853835
 H        -9.5382711601        1.7896816866        5.2050021005
 H       -15.4948122559        1.1712277747        7.3340641562
 H       -14.6504886505        0.0127927970        6.3727336665
 H       -16.5834656576        0.0778192025        4.9761181830
 H       -15.6746836969        1.3521074814        4.2815022854
 H       -18.8631183645        4.7670744945        2.2555367716
 H       -17.9594511762        5.5481594698        3.3979855037
 H       -19.3719335620        4.8337503242        3.9894668118
 H       -19.5900822533        1.2246796578        2.9406200216
 H       -19.0449540128        0.2673296083        4.2687749271
 H       -17.9050169764        0.8470987654        3.0731385892
 H       -20.6145780358        3.0601457364        4.6286850587
 H       -19.5619766633        3.6773361540        5.6184771431
 H       -20.0693912691        2.1287768585        6.0761096298
 H       -13.5739267138        1.5613053146        8.7621621283
 H       -11.7684468703        1.0224803997        8.5223795344
 H       -13.2327131622        0.2132853987        7.9142230809
 H       -13.3134905368        3.9442066344        7.0032656462
 H       -11.7421407388        4.0388520158        6.2708747708
 H       -11.6719771824        3.7655213410        7.8742968115
 H       -11.4985489241        3.3145911876        2.2489474932
 H       -12.9533985269        2.2347034608        2.3736063967
 H       -12.4762595964        3.1448442052        0.9182044538
 H       -13.1176414643        0.4382060567        1.7731050580
 H       -11.8829394315       -0.6107178334        2.0152980301
 H       -12.2794214648       -0.2645637908        0.2928350481
 H       -11.8491319641        3.2902071791       -3.2516405164
 H       -11.5839812280        4.4495653365       -4.4753706422
 H       -10.9738354869        4.9869785712       -2.9765526587
 H       -10.7363465714        2.6848748989       -6.0619919571
 H       -10.9956559660        1.6218585771       -4.7853056397
 H        -9.3825214983        1.5605527640       -5.5121254879
 H        -4.4865673988        8.4480762881       -5.9877795496
 H        -6.0641024612        7.6879140300       -5.9555221951
 H        -5.4617806671        8.2266196865       -7.5223199320
 H        -3.6210934488        4.7608385191       -7.7236293285
 H        -2.9410999447        6.5193140950       -7.4287666267
 H        -4.1771075299        6.0716291594       -8.6255110157
 H        -2.2671951786        7.0023311887       -0.8613309642
 H        -3.0981870965        8.2928600511       -1.4651320678
 H        -2.2826034669        7.3970270272       -2.5657080343
 H        -5.3589162441        5.4534127782       -0.0636895461
 H        -4.2621964195        6.8135724478        0.5431557273
 H        -3.5936215781        5.3704980231        0.3211281887
 Na       -6.8045799538        4.4353291450       -1.9077309580
