117

 C        -5.1276949625        8.6187294475       -2.6557522598
 C        -5.3741445647        7.2910339620       -2.0302878624
 O        -6.5031508156        6.8266036874       -1.9236201935
 C        -4.1671076157        6.3978427325       -1.5643544103
 C        -4.0254349520        5.1420668206       -2.5399179837
 O        -4.7083959400        4.1663856620       -2.3615780464
 C        -2.8319510392        4.9698466719       -3.5091877724
 C        -3.2755097181        5.1829263768       -4.9678293360
 C        -4.6507884071        5.8045691593       -5.0996845376
 O        -5.3330711496        6.2256393378       -4.1754071551
 C        -5.0662076884        6.2502810631       -6.5300046945
 C        -6.2691685531        5.2450416668       -6.9155249791
 O        -6.1252427848        4.2589298405       -7.5813085234
 C        -7.6444926790        5.7175800829       -6.2472118956
 C        -8.6417798436        4.4107763494       -5.9750853372
 C        -8.7389691407        4.0664923591       -4.4400917426
 O        -8.3504147422        4.9201113374       -3.5883181758
 C        -9.8973572074        3.0331603006       -3.9296255873
 C        -9.2910199930        2.2495278040       -2.7433844160
 O        -8.3515632970        2.5426917810       -2.0492247958
 C       -10.1293937520        0.9704753869       -2.2764385560
 C        -9.8620549505        0.6790090888       -0.8277021741
 C       -10.6801710093        1.6495394714       -0.0466528043
 O       -10.8638812000        2.7307542159       -0.5788331148
 C       -11.2111135552        1.3600876692        1.3843027953
 C       -10.0617985787        1.0307403416        2.3991960722
 O        -8.8836630543        1.2361700547        2.1746819953
 C       -10.5562675735        0.7078109596        3.9344877021
 C       -10.6431351943        1.9296840643        4.8615571329
 C       -11.2020055290        1.4249531663        6.2783032631
 O       -10.6467850209        0.6169759265        6.9769910765
 C       -12.5704442181        1.9854404990        6.8723395964
 C       -13.7070298931        1.8887705842        5.7359113192
 O       -13.7077391108        2.3572208392        4.6400156632
 C       -15.0124106654        1.0996200934        6.2752863344
 C       -16.2194930414        1.0770764048        5.3016081218
 C       -17.3383738911        2.0896261078        5.6695561746
 O       -17.4435484845        2.7524112334        6.6924905822
 C       -18.5095231586        2.3657130030        4.5325695134
 C       -18.0351835049        3.4729309108        3.3792406994
 O       -16.9562980795        3.3091845542        2.8901285959
 C       -18.7489601871        4.8569563584        3.1500190881
 C       -18.7870594740        0.9188081068        3.7421221092
 C       -19.8019953284        2.9394178183        5.1449927998
 C       -12.7894045534        1.2566997428        8.2282229708
 C       -12.4111809736        3.4524419334        7.2186694761
 C       -11.9078191472        2.7223184920        1.7490708809
 C       -12.2174162250        0.1859499214        1.3416436065
 C       -11.1166356781        3.8938807849       -3.6264524987
 C       -10.1231860875        2.0656788972       -5.0973478266
 C        -5.2385457888        7.7753455393       -6.5271583194
 C        -3.8839762901        5.9386305744       -7.5235057334
 C        -2.8282396585        7.2197234071       -1.5205757087
 C        -4.4932855906        5.8268959635       -0.2392257163
 H        -4.1914270789        9.0356999113       -2.4531119633
 H        -6.0107514516        9.2132883689       -2.4941101239
 H        -5.1824681772        8.5201107273       -3.7609260372
 H        -2.3633846348        4.0342852520       -3.4266019872
 H        -2.2122590659        5.8509781815       -3.3988534360
 H        -3.2638531337        4.3616012504       -5.5125973010
 H        -2.7034950163        5.9609701448       -5.4908458854
 H        -8.0086519954        6.6350723846       -6.6249009386
 H        -7.3173440884        5.9818305054       -5.2488032435
 H        -8.3209133263        3.4728813423       -6.4230768242
 H        -9.6744888017        4.5367585411       -6.1076329810
 H        -9.9115107121        0.1582970412       -2.9853289563
 H       -11.2059955705        1.2209264519       -2.4712739603
 H        -8.7953535577        0.8491267153       -0.6861779169
 H        -9.9234601983       -0.3807186402       -0.3468597003
 H        -9.9235955408       -0.0315841247        4.4048701039
 H       -11.5425548406        0.2956054168        3.7612565638
 H       -11.4147137994        2.5852590769        4.4937241250
 H        -9.7083982137        2.4194988785        5.0513337378
 H       -15.2799533155        1.4828464761        7.2904184587
 H       -14.5669254523        0.1590274955        6.5846864459
 H       -16.5894241006        0.1104507172        5.2133197508
 H       -15.8277811692        1.2286765545        4.2856381395
 H       -18.6421127436        4.9512736400        2.1121379534
 H       -18.1203789239        5.6939990418        3.4606883297
 H       -19.7132549418        4.9670119217        3.6090270728
 H       -19.6739449838        1.0228111776        3.2009178719
 H       -18.9569091394        0.0739835708        4.4903013495
 H       -17.9947195331        0.6257262072        3.0827165155
 H       -20.4533502337        3.5309659046        4.5260931776
 H       -19.4220168060        3.7156463210        5.9060095708
 H       -20.2605524597        2.2017472057        5.6541348430
 H       -13.4964061440        1.7827421483        8.8299314386
 H       -11.7887571657        1.0607118246        8.5932543432
 H       -13.3375783966        0.3100983428        8.1526143724
 H       -13.3587327628        3.9840983710        7.1805213136
 H       -11.8110838698        3.8550176920        6.2643321299
 H       -11.7189696043        3.7665534060        7.9629341111
 H       -11.2366045285        3.4927648528        2.0496816859
 H       -12.6752125114        2.3875564119        2.4241898160
 H       -12.4279155022        3.1366034785        0.9325308101
 H       -13.1366665329        0.6942850344        1.7212545502
 H       -11.9680130635       -0.5829779551        2.0533273166
 H       -12.1297443634       -0.1153499416        0.2651320055
 H       -11.9353436592        3.2039442619       -3.4556454419
 H       -11.4265293069        4.6583123654       -4.3974827837
 H       -10.7442156715        4.6293956891       -2.8141752768
 H       -10.4553572087        2.6615646942       -5.9387528181
 H       -11.0281877911        1.4024962194       -4.9367182148
 H        -9.2323344720        1.4796481373       -5.2599899267
 H        -4.3300996881        8.3735911310       -6.3551223183
 H        -5.9947249112        8.0894904554       -5.7111480297
 H        -5.6057869922        8.0746287766       -7.5089649905
 H        -3.3582802848        5.0159276500       -7.2976005368
 H        -3.1971220716        6.8129683079       -7.6684322902
 H        -4.3025679249        5.5665590507       -8.5470801332
 H        -1.9567396768        6.5402570873       -1.4356263102
 H        -2.8385739286        7.7213739738       -0.6038977120
 H        -2.6806711845        8.1114267428       -2.1794160221
 H        -5.1659904773        4.9740919062       -0.4270279123
 H        -4.6007574299        6.4914441579        0.5443619807
 H        -3.5025514169        5.3962516831        0.1827282142
 Na       -6.9169806624        4.3642048486       -2.0527703946
