117

 C        -5.0874238916        8.7440407286       -2.5950052279
 C        -5.3121063850        7.3127575095       -2.0890261498
 O        -6.4462598474        6.8196439001       -2.0537557130
 C        -4.0768289676        6.2577913707       -1.5136579589
 C        -3.9160979709        5.0688648440       -2.4407307165
 O        -4.7034067046        4.0713278622       -2.3745416411
 C        -2.8305425583        4.9549571944       -3.4047642632
 C        -3.2269442065        5.0647417544       -4.9251001888
 C        -4.5457986159        5.9410134354       -5.2060769520
 O        -5.1468415799        6.4603282787       -4.2931562663
 C        -5.1575775370        6.1773889132       -6.6376372276
 C        -6.3494430179        5.1850114101       -6.7677088983
 O        -6.2618775439        4.1290227193       -7.4061586286
 C        -7.6840516272        5.5272281731       -6.1225493322
 C        -8.6335270157        4.3086957734       -5.8146904035
 C        -8.7687490184        4.0469066131       -4.3539745548
 O        -8.2154473473        4.7444605960       -3.6261559673
 C        -9.6665087481        2.8621979726       -4.0084942924
 C        -9.3080984205        2.1646640197       -2.6739963759
 O        -8.4211967866        2.4867624663       -1.9133796401
 C       -10.1192472016        0.8657848612       -2.3546547894
 C        -9.9452816875        0.5987212446       -0.8693035137
 C       -10.7186671392        1.7803109025       -0.1400267029
 O       -11.0038237873        2.8206815593       -0.6315046261
 C       -11.2561444931        1.4935753923        1.4519792108
 C       -10.0678609853        1.2746633926        2.3581486134
 O        -8.8923327377        1.2093319688        1.9409535080
 C       -10.4110396201        0.8252892714        3.8109199725
 C       -10.7593103646        1.9581300145        4.8315764337
 C       -11.2879546664        1.4736517068        6.2639212401
 O       -10.5539090008        0.7050698103        6.8242382325
 C       -12.6289908631        2.0564804443        6.8770072795
 C       -13.7452438335        1.9381273404        5.8151270001
 O       -13.5387068189        2.3513702369        4.7322051720
 C       -15.0247971127        1.2557222130        6.3122733300
 C       -16.2939022629        1.2704554396        5.2882889857
 C       -17.3518994912        2.2858036064        5.6075650899
 O       -17.4373726425        2.7801992200        6.6218641083
 C       -18.4283071277        2.5575715191        4.5074964669
 C       -17.9015357692        3.5104920022        3.3342875510
 O       -16.9078993220        3.2914431903        2.6726616503
 C       -18.8124899958        4.7499810518        3.0610750102
 C       -18.7831406739        1.0790488329        3.9757729508
 C       -19.7394629268        2.9111206586        5.1810519175
 C       -12.9956579564        1.3649263800        8.2350625043
 C       -12.4608341968        3.5796843623        7.2502843477
 C       -11.8301150853        2.8184954189        1.9466871241
 C       -12.2274996216        0.2301766241        1.2855713043
 C       -11.0033571661        3.6918942917       -3.6552967186
 C       -10.1033089568        1.7986944558       -5.0550948534
 C        -5.4829976741        7.7174189451       -6.5925431572
 C        -3.9799015445        5.9591066855       -7.7416246004
 C        -2.7744545008        7.1045684110       -1.2808090444
 C        -4.5100815559        5.6405152164       -0.1213110002
 H        -4.2391868338        9.2737049261       -2.0614403220
 H        -6.0570154090        9.1470086724       -2.5784444476
 H        -4.8458766151        8.8109862035       -3.5903449967
 H        -2.4051700991        3.8524550237       -3.4402127754
 H        -2.1304330093        5.7036385710       -3.2693062800
 H        -3.5014928107        4.0437884558       -5.2708244056
 H        -2.4978701310        5.4325177476       -5.5771374563
 H        -8.1144317467        6.0716658300       -6.9594513124
 H        -7.6554539094        6.3862477310       -5.2748781278
 H        -8.3289764935        3.3716104367       -6.3064178230
 H        -9.6329424007        4.5633091057       -6.0579089403
 H        -9.6018739352        0.1778180746       -2.9999651594
 H       -11.1586220418        0.8738398612       -2.6834528684
 H        -8.8965147416        0.4580553303       -0.6334760327
 H       -10.3787014587       -0.2905847377       -0.4435008405
 H        -9.5459113619        0.3963531583        4.1826706916
 H       -11.1063310701        0.0605572042        3.6756723729
 H       -11.6304773213        2.6192103110        4.4841300091
 H        -9.8866638993        2.5856994971        5.1021830288
 H       -15.2319078932        1.8363448012        7.1368932329
 H       -14.7666333745        0.3314240962        6.7990612595
 H       -16.7471889308        0.3298427624        5.4623844385
 H       -15.9851158995        1.1107642284        4.2918754160
 H       -18.3551396471        5.0297795409        2.1124118898
 H       -18.5653130865        5.6308752293        3.6682978837
 H       -19.9463502375        4.5687244792        3.1533843959
 H       -19.7871912144        1.1347551246        3.3933304373
 H       -18.8699989703        0.4041979458        4.7866448624
 H       -17.9844261171        0.7134934740        3.2823050969
 H       -20.5725755504        3.3762534632        4.4887335717
 H       -19.5900692822        3.6610580955        5.9888104742
 H       -20.0928992585        1.8834218036        5.6298686907
 H       -13.9014594653        1.8083595701        8.5625083889
 H       -12.1286747973        1.4316151671        8.8917009768
 H       -13.2628193469        0.3441695253        8.1747060698
 H       -13.3954232254        4.0261664996        7.6911735568
 H       -12.1233747016        4.2699477628        6.4719317507
 H       -11.5516662805        3.6611806024        7.9097440570
 H       -11.0523912720        3.6265335394        1.7685601434
 H       -12.2492622219        2.6701396780        2.8944761042
 H       -12.6985597544        3.1268434467        1.4207356840
 H       -13.2061711477        0.6257502339        1.6872841787
 H       -11.9111784389       -0.6894291497        1.8981931083
 H       -12.0842365365        0.0943369688        0.2344414401
 H       -11.8068746410        2.8691778727       -3.5603572069
 H       -11.3674940114        4.5577388592       -4.1789674011
 H       -10.6655414944        4.1065647858       -2.7466319872
 H       -10.5149316098        2.3447793071       -5.9215660872
 H       -10.9633606594        1.2086302845       -4.7675798879
 H        -9.2204438992        1.1500856535       -5.2629785091
 H        -4.5872458047        8.2173567358       -6.5868425566
 H        -6.0475552265        8.1903534365       -5.7361376727
 H        -5.8963471754        7.9922145279       -7.5491197504
 H        -3.4472967263        5.0491869432       -7.5794225204
 H        -3.3381279247        6.8421967825       -7.7587013645
 H        -4.4135555914        5.7739527050       -8.7565762122
 H        -1.8603500015        6.6849553744       -1.7960170770
 H        -2.4383922456        7.2170792718       -0.1725742941
 H        -2.9248200524        8.1751736886       -1.4970122509
 H        -5.1885356742        4.8365494112       -0.4135346701
 H        -4.7760046977        6.4421785309        0.6490120112
 H        -3.7177920614        5.2934436621        0.4807898887
 Na       -6.9967833944        4.3747155434       -2.0811208441
