117

 C        -4.8926351271        8.4914355860       -2.0420243537
 C        -5.1996878604        7.0596551151       -1.8261618499
 O        -6.2921154445        6.5511909980       -1.9691988516
 C        -4.0624423447        6.1704374630       -1.3186417040
 C        -3.9494582551        5.0812197213       -2.4639642386
 O        -4.6979239413        4.1600509892       -2.5194622157
 C        -2.8472971629        5.0731758355       -3.5750107859
 C        -3.4154174648        4.7141784516       -5.0354741663
 C        -4.3995759090        5.9396690249       -5.3493853645
 O        -4.5014942603        6.7842087451       -4.4893961532
 C        -5.2656009696        6.0968305754       -6.8378297212
 C        -6.2790507807        5.0043507603       -6.6694138053
 O        -6.0295843131        3.8960358281       -7.0120387543
 C        -7.6937143441        5.3909642219       -6.2597942643
 C        -8.6899746865        4.1818628275       -5.9806019939
 C        -8.8920694690        3.7956968257       -4.5870890936
 O        -8.2880809795        4.5578461600       -3.7660856370
 C        -9.7001189136        2.6914051399       -4.0502548678
 C        -9.1889877072        2.0337639289       -2.5338982110
 O        -8.3041243112        2.5049307514       -1.8621948975
 C        -9.8369563707        0.6202463279       -2.1491820023
 C       -10.2999638838        0.5048764989       -0.6778123812
 C       -10.9323663064        1.8319501140       -0.0913979755
 O       -11.0832397955        2.8423993677       -0.7911455233
 C       -11.3332316348        1.7977367714        1.4483766429
 C       -10.0450908116        1.4708200211        2.3491651492
 O        -8.9887223778        1.1982922731        1.8518521164
 C       -10.1376667751        1.1669640709        3.8615613379
 C       -10.6709135443        2.1961008345        4.8339908735
 C       -11.1944721378        1.6720810576        6.2381557056
 O       -10.6985584889        0.7359008815        6.7919607761
 C       -12.5511167339        2.1968861157        6.9441637873
 C       -13.7362185589        1.9637649429        5.8741600600
 O       -13.7153646752        2.3453504395        4.6864223922
 C       -15.1291400691        1.6026359317        6.3808270077
 C       -16.1081420157        1.7017403001        5.2678684626
 C       -17.3266093965        2.3855444951        5.5443890261
 O       -17.3182831578        3.1847947502        6.5693893135
 C       -18.4661139732        2.5295579983        4.4611578865
 C       -18.0237480570        3.4427344961        3.3187304766
 O       -17.0725023496        3.0538799481        2.6898906665
 C       -18.8188346738        4.6938608548        2.7613338342
 C       -18.7398710980        1.2436758050        3.7398704979
 C       -19.6362522996        3.2676621966        5.2799010101
 C       -12.7745220858        1.4359213776        8.2136570223
 C       -12.3503663746        3.6506111332        7.1300788711
 C       -12.1843842889        3.0660861504        1.7109686306
 C       -12.4432115320        0.5658483526        1.5705031426
 C       -11.0495381885        3.2350869851       -3.6522220979
 C        -9.8211883856        1.5952260556       -5.1953466259
 C        -5.9801759528        7.5201917634       -6.9815202259
 C        -4.4856277979        5.8002641470       -8.0696906248
 C        -2.7521698444        6.8196138763       -0.8795288450
 C        -4.7205297935        5.6741751555        0.0463061353
 H        -4.9125831445        8.9686212627       -1.1190101798
 H        -5.4883632538        8.8886063681       -2.8992655304
 H        -3.7781543463        8.6540711512       -2.2892742531
 H        -2.2335415373        4.2785528410       -3.4401789707
 H        -2.2375452335        6.0199133784       -3.8173337555
 H        -3.9432284099        3.7519325868       -5.0708702077
 H        -2.6040627774        4.7054035669       -5.8944970578
 H        -8.1779763489        6.1227686526       -6.9660686956
 H        -7.5777989443        5.9876438931       -5.4317156614
 H        -8.1718322930        3.3297224955       -6.4743259336
 H        -9.7472588338        4.3254806091       -6.3972703481
 H        -9.1128241140       -0.1801669871       -2.4025986833
 H       -10.7206988258        0.4415987588       -2.7758941216
 H        -9.5065146544        0.3658895127        0.0539802178
 H       -10.8925238377       -0.4513717372       -0.5994668385
 H        -9.1157455722        0.7781105635        4.2056545170
 H       -10.7623544597        0.2047811557        3.8610141460
 H       -11.5206940384        2.6514958255        4.4253097617
 H       -10.0307867077        3.0010514328        5.2190286036
 H       -15.2601178338        2.2384848529        7.3273761540
 H       -15.1605379715        0.5434056332        6.6913426818
 H       -16.0051141618        0.6877005139        4.7917457352
 H       -15.7079012388        2.3425754366        4.4171993946
 H       -18.1879492494        5.5739632365        2.6624770224
 H       -19.5827430249        4.9634314902        3.5074679441
 H       -19.3799385033        4.2990021442        1.9511278897
 H       -19.4876844115        1.4785410106        3.0756010301
 H       -19.0744859877        0.4241899312        4.4695005582
 H       -17.8839860464        0.9175717989        3.1795753711
 H       -20.5251331400        3.0661722928        4.7168435884
 H       -19.4762282233        4.3919088584        5.2158523618
 H       -19.8145742861        2.9603501529        6.2255022973
 H       -13.7678476381        1.5732573978        8.6857438720
 H       -12.0127573146        1.7421511569        8.9275982737
 H       -12.5570147855        0.3498917633        8.0530143554
 H       -12.9976950851        4.1432963885        7.8048274989
 H       -12.5382448940        4.2099158459        6.1579504206
 H       -11.3573078048        3.8789020220        7.4459832775
 H       -11.5516183427        3.8971658176        1.9684512492
 H       -13.1251365851        2.9386181536        2.3160494262
 H       -12.6500184179        3.3750544637        0.7316680953
 H       -12.6211068761        0.6587287750        2.5878554927
 H       -11.9845431985       -0.3137087373        1.3542946438
 H       -13.2737522493        0.7609467633        0.8803962361
 H       -11.7453476066        2.5636037221       -3.3177246941
 H       -11.4218487836        3.7580888617       -4.5389540288
 H       -10.8038847206        4.1022530691       -2.9657113306
 H       -10.1656478618        1.8536561426       -6.1803725228
 H       -10.4403051713        0.7307790982       -4.8798873456
 H        -8.8291735322        1.2404957798       -5.1720021561
 H        -5.1337683573        8.2202314770       -7.1561048637
 H        -6.4651655940        7.9619995689       -6.0920394765
 H        -6.6339661227        7.5543988591       -7.8211796516
 H        -4.4525016063        4.7556621469       -8.2730134734
 H        -3.5123234387        6.1304204631       -7.8653197128
 H        -4.8762443773        6.3231973048       -8.9572060042
 H        -2.2181891831        7.0508107212       -1.8052392210
 H        -2.0998566152        6.3068559925       -0.2943866688
 H        -2.9481846476        7.7362185507       -0.2964855651
 H        -5.6897922861        5.3697127564       -0.2276012341
 H        -4.6522738072        6.4391224722        0.6989478916
 H        -4.1203814676        4.9327239922        0.6316686650
 Na       -6.8629026426        4.4075693641       -1.6230246410
