117

 C        -3.9885188670        0.8519096017        9.1885507540
 C        -4.4211193489        2.2886214520        8.9961463453
 O        -3.5605757258        3.1136619528        8.6157219912
 C        -5.8176497953        2.7497300882        9.1966992913
 C        -6.3258116336        2.9288811486        7.4604594889
 O        -6.9094223352        2.0503280930        6.8986099500
 C        -5.8574605170        4.1395778322        6.7106176813
 C        -5.6911766871        3.7433269371        5.2434432717
 C        -6.1309393999        4.9952890720        4.2753601776
 O        -6.8875456810        5.8126716130        4.7777699154
 C        -5.4918752680        5.2673952132        2.8611437015
 C        -5.6303090358        3.8025064355        2.1031407619
 O        -4.7986661532        2.9601001148        2.2718885070
 C        -6.9213973966        3.5341572841        1.2049955274
 C        -6.4767535835        2.9797204817       -0.1935884746
 C        -7.8338639620        2.4009332159       -0.6748961759
 O        -8.5879589720        3.0743469425       -1.3171233496
 C        -8.3455115523        1.0062876864       -0.3586912760
 C        -9.6546068802        1.0740529517        0.6355712691
 O        -9.5395706369        1.4021977902        1.7969538499
 C       -11.0299864353        0.6870077381        0.0528129383
 C       -12.2220688399        1.4484543428        0.6062289978
 C       -12.2726617361        2.9142485093        0.0775423279
 O       -11.2798661535        3.5410163837       -0.2092859712
 C       -13.6172879157        3.7990816575        0.0426477741
 C       -13.8757953323        3.9357760381       -1.5566200199
 O       -12.9857089937        4.0329422202       -2.3371677563
 C       -15.2969159356        3.7304076190       -2.1165660292
 C       -15.4829232770        4.0002786929       -3.6008995361
 C       -14.8827787962        5.4895641650       -3.8522335827
 O       -14.4934974866        6.2020318408       -2.9402644421
 C       -14.9879394635        5.9413449111       -5.3542190435
 C       -13.4833199874        5.8119411821       -5.9587842397
 O       -13.1860652205        4.8372948215       -6.6853403766
 C       -12.4078816566        6.8849949974       -5.6917624488
 C       -11.0761237471        6.3044351679       -6.1490781090
 C       -10.7999407677        4.9984799802       -5.3610088166
 O       -10.9445019031        5.1082989728       -4.1576172846
 C       -10.3090097063        3.6323680583       -6.0567333141
 C       -11.2505283941        2.4515874828       -5.4323126893
 O       -11.3687838683        2.4231986578       -4.2229592441
 C       -11.8762713353        1.4075558119       -6.3245073825
 C       -10.2508184861        3.7650412287       -7.6342672887
 C        -8.8968404630        3.4040737393       -5.5981514482
 C       -16.0450694034        5.1388258148       -6.2330842896
 C       -15.4339449511        7.4598160678       -5.3075400110
 C       -14.7141461933        3.0746087280        0.6823939505
 C       -13.4644828109        5.2263615315        0.4640310968
 C        -8.6469280629        0.3530872348       -1.7734972228
 C        -7.4526500357        0.0440730865        0.4122686186
 C        -6.1916118764        6.4276113595        2.1510773447
 C        -4.0043814097        5.5492183237        2.9398534551
 C        -6.8779141386        1.7964535066        9.8876802442
 C        -5.9397227366        4.0071868895        9.9192456176
 H        -4.6879593542        0.3581412422        9.8984945753
 H        -2.9541040957        0.8033742530        9.4466458627
 H        -4.3279360513        0.4228603997        8.2013670175
 H        -4.9570850623        4.5168230196        7.1894853029
 H        -6.6191974281        5.0142790218        6.7565056400
 H        -6.2935130473        2.9091497207        5.0300638714
 H        -4.7602341186        3.3465697576        4.9632615599
 H        -7.5782650189        4.3626235362        1.0378419260
 H        -7.5285971516        2.8592477091        1.7767373110
 H        -5.7803919374        2.1086367836       -0.0582991310
 H        -6.1121811033        3.7666713498       -0.8286552978
 H       -11.0962277873       -0.4128879539        0.1912325246
 H       -11.1359159811        0.8637493357       -1.0067855935
 H       -12.4462655509        1.4758944765        1.6969361866
 H       -13.0051980398        0.9286074843        0.1640358134
 H       -16.0854615023        4.2779480462       -1.4742013073
 H       -15.5155296730        2.6487125390       -1.9796864097
 H       -16.5125891521        4.0508590643       -3.8961439602
 H       -15.0409218165        3.3028130096       -4.3253984972
 H       -12.4226680230        7.1826299456       -4.6564287747
 H       -12.4651258970        7.8650685555       -6.2086186019
 H       -10.2393652604        6.9381767240       -6.0110519247
 H       -11.3157242282        6.1767909560       -7.2395851788
 H       -11.0613203797        0.7786654182       -6.7450651545
 H       -12.2473078206        1.8661996508       -7.2581651824
 H       -12.7146866489        0.8083659408       -5.9553846942
 H        -9.7369958565        4.6493078661       -8.0797123687
 H       -11.2718805826        3.6255594607       -8.0134143113
 H        -9.5866817412        2.9537794362       -8.0768658094
 H        -8.8975325317        3.1253379471       -4.4981422835
 H        -8.3068735290        4.4141983294       -5.7089998680
 H        -8.4248441673        2.6218148083       -6.0769856485
 H       -15.7260691499        4.1500479561       -6.3653130240
 H       -15.9691974443        5.5961647549       -7.1529899648
 H       -17.0818332487        5.1829108952       -5.8591137938
 H       -15.6322012160        7.9010616894       -6.3004910057
 H       -14.6349808426        8.0009771094       -4.8848545897
 H       -16.4289069331        7.5410300201       -4.7732812275
 H       -14.4038634121        2.5694135807        1.5650240013
 H       -15.1078113123        2.2887501275        0.0656423497
 H       -15.5420921359        3.6970061396        0.9321062949
 H       -13.2557752318        5.2174758215        1.5636084969
 H       -14.3287437091        5.8492367950        0.1784568266
 H       -12.5809557607        5.6555130371        0.0533507035
 H        -9.2976526436       -0.5064171058       -1.5136094994
 H        -7.7798568827        0.1773295840       -2.3821430024
 H        -9.3796646664        0.8700268885       -2.3598668524
 H        -7.2558181304        0.3964031650        1.4255265847
 H        -6.4934490059       -0.1598929423       -0.1468609756
 H        -7.9616304394       -0.8620564482        0.5096109811
 H        -6.2828756176        7.2934811674        2.8616160192
 H        -7.1675568035        6.3124251389        1.7802140700
 H        -5.5554330322        6.7940356279        1.3150233258
 H        -3.6801530663        5.4108495438        3.9562003715
 H        -3.6832243372        6.4523947481        2.5697753347
 H        -3.4332144503        4.7685791096        2.4724678492
 H        -6.9597928622        0.8231846566        9.3558018876
 H        -7.8470267436        2.2799371124        9.8930612111
 H        -6.6653005821        1.6119721705       10.9869504841
 H        -5.0728295096        4.6775723322        9.8384464372
 H        -6.1295368284        3.7584740379       10.9116446511
 H        -6.7947801733        4.5249633448        9.5445786546
 Na      -10.6832058956        3.5091172259       -2.4030696407
