117

 C        -4.8666938309        8.6014884735       -1.7305620733
 C        -5.1291148932        7.0053773841       -1.5868261791
 O        -6.2344300784        6.6706449426       -1.9699919595
 C        -3.9852524025        5.8662470896       -1.2177972452
 C        -4.0673513286        4.9734380101       -2.4673805609
 O        -4.9038136769        4.0364286888       -2.5177817778
 C        -3.1141205517        5.1853283279       -3.5740081940
 C        -3.7968009696        4.9210330768       -4.8682116942
 C        -4.3774862596        6.2277091142       -5.5328197398
 O        -4.2663894615        7.3752636733       -5.1246280214
 C        -5.2644231336        5.9119678080       -6.8005703480
 C        -6.3595102127        4.7688164848       -6.6145460259
 O        -5.9679567323        3.5952301546       -6.4595243839
 C        -7.8307056634        5.0834436559       -6.3542795368
 C        -8.7048980514        3.9262951907       -5.9087418638
 C        -8.7657060911        3.6994906417       -4.3706895154
 O        -8.1762913432        4.4474996462       -3.6706985962
 C        -9.6910439717        2.5105634373       -3.9284198803
 C        -9.1845565900        1.9014350916       -2.4749146917
 O        -8.1893221319        2.4734710685       -1.9913895739
 C        -9.8147528845        0.5496829401       -2.0671623275
 C       -10.2158796377        0.4890946554       -0.5935605087
 C       -11.0090906531        1.7728515157       -0.0998175829
 O       -11.1104049777        2.7616017698       -0.7965213535
 C       -11.5418121571        1.8327952556        1.5294116717
 C       -10.2393471771        1.6684421309        2.3463595475
 O        -9.1833411238        1.5608417784        1.7543377297
 C       -10.1958511255        1.3666027472        3.8672177029
 C       -10.6312994172        2.4718912516        4.7999723069
 C       -11.0802564610        1.7986970069        6.1868978115
 O       -10.5881116515        0.6990573601        6.3438667081
 C       -12.3817207546        2.2698811095        6.9241948413
 C       -13.6715662901        2.1820603890        5.7907446417
 O       -13.4297810748        2.3783108672        4.6223247508
 C       -15.0576535083        1.7860319828        6.2591458420
 C       -16.2498309343        1.8071784180        5.1828571447
 C       -17.4443347762        2.7764021621        5.4765419975
 O       -17.3918661403        3.4656775593        6.4240338998
 C       -18.6495578687        2.7421290711        4.4259349570
 C       -18.0161088224        3.4762529272        3.0901938013
 O       -16.9428951966        3.0251590820        2.6732013121
 C       -18.7912392171        4.6795683746        2.5550427448
 C       -19.1159692270        1.2941553803        4.1618184478
 C       -19.8414136046        3.3468645257        5.0814675081
 C       -12.5548222639        1.6040426367        8.3463827483
 C       -12.2324003123        3.8576700595        6.9813552444
 C       -12.0323019795        3.2717682629        1.7420983664
 C       -12.5577870394        0.7657264433        1.9397525028
 C       -11.1749929101        2.9272811696       -3.9132914406
 C        -9.5087050759        1.3056460423       -4.9030954692
 C        -5.9350766921        7.2619337052       -6.9686080420
 C        -4.3128494551        5.6525072960       -8.0095369042
 C        -2.5873631086        6.5008184796       -1.0616007956
 C        -4.4207024719        5.0528875229        0.0236243087
 H        -5.4952404081        9.1323295559       -0.9559302547
 H        -4.9870359763        8.8332881337       -2.7588270241
 H        -3.9227850478        8.9155020314       -1.3979151060
 H        -2.2100848979        4.4711566002       -3.4622853989
 H        -2.7706043415        6.1503917297       -3.7444908903
 H        -4.6759335310        4.2644847962       -4.7774632051
 H        -3.1682885477        4.5247433100       -5.5308045291
 H        -8.2319534143        5.1814762294       -7.3811740439
 H        -8.0112663391        6.1302133277       -5.9665085415
 H        -8.5244765414        3.0627605402       -6.5124072077
 H        -9.6705640277        4.2867810740       -6.1235083949
 H        -9.1691364793       -0.3360397767       -2.1961439474
 H       -10.7037743417        0.3849368162       -2.7347477535
 H        -9.3416009495        0.3769572604        0.1298457341
 H       -10.7369766308       -0.4567880284       -0.4647193515
 H        -9.1896582547        1.1202508285        4.1220531979
 H       -10.6777422126        0.4155653652        3.9738369487
 H       -11.4657159251        3.1322673061        4.4461576920
 H        -9.8446907314        3.1985824516        5.0153145642
 H       -15.4202937979        2.3304415736        7.1332577240
 H       -14.9213387243        0.7288282241        6.6254314756
 H       -16.6416466680        0.7924954328        5.2538151168
 H       -15.8880223858        1.7978938791        4.1508353201
 H       -18.5069122370        5.3664133493        3.3355065514
 H       -19.8126839089        4.5229700143        2.7323229361
 H       -18.5551762474        4.9156476629        1.5210436028
 H       -20.0132871632        1.3309404081        3.4923040635
 H       -19.3498764685        0.8377272601        5.0341365333
 H       -18.3115217688        0.7594108853        3.6777605920
 H       -20.7225809832        3.2833462275        4.4201270653
 H       -19.6230043308        4.1341597002        5.7331316963
 H       -20.2265134920        2.5164168243        5.8147666265
 H       -13.1727432407        2.2758852914        9.0198958008
 H       -11.5994679198        1.4519311281        8.9186934569
 H       -12.9603474637        0.5825373464        8.2319146060
 H       -13.1550952896        4.3770355708        7.4149518222
 H       -12.1064889388        4.3384635039        6.0717762977
 H       -11.5408262336        4.1589554166        7.8587254682
 H       -11.1867636734        3.9181356226        2.0300576933
 H       -12.7799284437        3.3577229280        2.5061748085
 H       -12.5409219229        3.6647782629        0.9034414422
 H       -12.3419470035        0.3113201904        2.9429431595
 H       -12.4927500276        0.1245690417        0.9839689531
 H       -13.5398447043        1.2473689985        1.8676106896
 H       -11.6718941049        2.1625874588       -3.1806141223
 H       -11.6226887984        2.7999212455       -4.9505431926
 H       -11.3508460276        3.9101592062       -3.4608420458
 H       -10.0526797549        1.7315843179       -5.7941478629
 H       -10.0251605100        0.4216672051       -4.6079417810
 H        -8.4867454900        1.0095614105       -5.2597483721
 H        -5.2110582663        8.0835949998       -7.1688576110
 H        -6.3906088455        7.5207701752       -6.0486184857
 H        -6.8301231130        7.1934271156       -7.6889016466
 H        -4.0289909609        4.5245120739       -8.0183250043
 H        -3.3175796866        6.2164127527       -7.9362514634
 H        -4.8254318818        5.8773212803       -8.9333233501
 H        -2.2773079267        7.3097555924       -1.6839657848
 H        -1.8132814573        5.6645356812       -1.1430759389
 H        -2.3873478015        6.8758934278       -0.0761122960
 H        -5.4990555348        4.7764648223       -0.0410020120
 H        -4.1299185234        5.6236175632        1.0272051012
 H        -3.7406106712        4.2288643880        0.0171538074
 Na       -7.0370031637        4.2669578142       -1.6369195324
