117

 C        -4.8083980176        8.4571012771       -1.5119402221
 C        -5.1492173386        7.0048012587       -1.4882974761
 O        -6.1907851908        6.5689592383       -1.7817984046
 C        -4.0232381637        5.8720825147       -1.1111563243
 C        -4.1909014960        4.9631493042       -2.4352009798
 O        -4.9749785378        4.0268047226       -2.4323909926
 C        -3.1696407391        5.1775089812       -3.5681612016
 C        -3.8734780485        5.0118277957       -4.9068262756
 C        -4.4084813038        6.2844966946       -5.6354834165
 O        -3.9858124509        7.3646050680       -5.2792535458
 C        -5.4131394691        5.9416390083       -6.7783425159
 C        -6.2839098595        4.7376926156       -6.3511038941
 O        -5.9619111009        3.5934475661       -6.1944187035
 C        -7.8563154794        5.0565466353       -6.4881961384
 C        -8.7145975413        3.8568206157       -6.0196239154
 C        -8.8037600562        3.6502679924       -4.4793933614
 O        -8.1839471485        4.3963994853       -3.6880784614
 C        -9.6649752694        2.3736988992       -3.9569173416
 C        -9.2522866705        1.8016172749       -2.4248264053
 O        -8.2410981601        2.1243544801       -1.7567460730
 C        -9.9524997122        0.6293946527       -1.9698055678
 C       -10.2701960960        0.5382736219       -0.3766390246
 C       -10.9968136788        1.7459329505        0.0240072733
 O       -11.1768894152        2.6715942846       -0.8006485348
 C       -11.5169054471        1.8601133768        1.4454614629
 C       -10.0420885692        1.6412011999        2.2750748238
 O        -9.0428729669        1.9071697385        1.7213990968
 C       -10.1076104582        1.4575985640        3.7603006074
 C       -10.5051242942        2.5692462750        4.7750438375
 C       -11.1435438035        1.8114600578        6.0118677970
 O       -10.6471233418        0.7554133423        6.3114086508
 C       -12.4007636966        2.4671233610        6.7667047777
 C       -13.6617822950        2.1474296709        5.7971890774
 O       -13.4525516510        2.4027672309        4.5644296624
 C       -15.1237290782        1.9081412183        6.3309461847
 C       -16.2278041064        1.7615482196        5.2599726952
 C       -17.3603183944        2.7384413310        5.4497904983
 O       -17.4496503431        3.6584580543        6.3564000427
 C       -18.6368401374        2.7384123176        4.4790555479
 C       -18.1152574430        3.4442734463        3.1338265066
 O       -17.0412211930        3.0660913041        2.6178859287
 C       -18.7440409056        4.6369499475        2.5229649467
 C       -19.0500245077        1.2360197660        4.2606487419
 C       -19.8794596436        3.6216306893        4.9726727876
 C       -12.5756848831        1.8037662773        8.1562740415
 C       -12.1943478968        3.9282836961        7.0877984894
 C       -11.8944303238        3.3283434695        1.7757987730
 C       -12.7308886108        0.8747664118        1.7930979043
 C       -11.0899285981        2.8692963914       -3.9134382146
 C        -9.3022860400        1.1419061620       -4.8117867722
 C        -6.2710060263        7.1959033848       -7.3471500100
 C        -4.2836465028        5.4903542264       -7.8871929626
 C        -2.5716947265        6.2997421491       -1.1231930870
 C        -4.2591231199        4.8604886454       -0.0089974547
 H        -5.5366011670        9.0106277332       -1.0795585150
 H        -4.5538039295        8.6931432425       -2.5433681653
 H        -3.9384413426        8.6720837816       -0.8499613917
 H        -2.4567695143        4.3473448180       -3.5038966886
 H        -2.5480020347        6.1712301905       -3.7847807124
 H        -4.6449539247        4.1972300496       -4.8597969418
 H        -3.1088654448        4.7513923697       -5.6754350577
 H        -8.2442564698        5.4323290578       -7.5947286755
 H        -8.1051024428        5.9571457354       -5.8657665645
 H        -8.1807637648        2.9575500163       -6.2193349486
 H        -9.6926560175        3.8215478287       -6.5492478958
 H        -9.2623114393       -0.2209885389       -2.1102148564
 H       -10.7763482608        0.4662627411       -2.6335957494
 H        -9.3299084876        0.6483832128        0.1810693439
 H       -10.6565365396       -0.3774325931       -0.0681555246
 H        -9.2323685391        0.9659521137        4.0949767527
 H       -10.7738797935        0.6907485314        3.8028575773
 H       -11.2322231047        3.2907643210        4.4032628196
 H        -9.6385388419        3.2886545833        5.0943216822
 H       -15.4753251340        2.7293080231        6.8781272309
 H       -15.0312130766        1.0683286009        6.9976960530
 H       -16.6462873486        0.7312801102        5.1079432309
 H       -15.8408533107        1.9808556143        4.3198313995
 H       -19.0739096224        5.3300315633        3.3517545358
 H       -19.6414961234        4.3137600339        1.9218349124
 H       -17.9203925853        4.9737023822        1.8966979272
 H       -20.0159651498        1.1615734348        3.8055176030
 H       -19.1421230973        0.8055593168        5.3209921704
 H       -18.2759769927        0.6421687611        3.7241403318
 H       -20.6319615043        3.7742676880        4.1103279848
 H       -19.3150788678        4.4410602679        5.5974378474
 H       -20.5537440891        3.1811895225        5.7214616956
 H       -13.0695937177        2.5134075266        8.8231629646
 H       -11.7758660421        1.4530543851        8.7391287672
 H       -13.1734464657        0.9198795904        7.8898341763
 H       -13.0696240912        4.4763639081        7.4812063263
 H       -11.9193456270        4.5623153222        6.2358636742
 H       -11.6031628923        3.9926162339        8.0138701133
 H       -11.1583520964        4.0591450304        1.8455664666
 H       -12.3996980902        3.3139032856        2.7696345255
 H       -12.7843736454        3.5691536101        1.1510425076
 H       -12.5224568266        0.5966357974        2.8591762681
 H       -12.7079400590        0.1000149711        0.9974568127
 H       -13.7274892740        1.4518860390        1.7088719485
 H       -11.5870371980        2.0947283001       -3.4148666910
 H       -11.4316641712        2.7985166637       -4.9929817696
 H       -11.3948958352        3.7888833153       -3.3045115894
 H        -9.5604055769        1.3419190370       -5.8907588274
 H        -9.7618750275        0.2015911047       -4.4687650694
 H        -8.1829561066        0.9513855005       -4.7887036022
 H        -5.7851263820        8.1883044449       -7.2248055049
 H        -7.1003794615        7.2480399238       -6.7272078651
 H        -6.7558960127        7.0042605466       -8.2634729020
 H        -3.6619934824        4.6044300942       -7.5673671810
 H        -3.6007809142        6.3167258978       -8.1262180024
 H        -4.8448939964        5.2295102654       -8.7682817419
 H        -2.1207277081        7.1360701066       -1.7355180258
 H        -2.0147847125        5.3574299817       -1.2185155318
 H        -2.1666003758        6.6887925327       -0.1038418094
 H        -5.3055915263        4.4493847509       -0.0031712913
 H        -3.9889274642        5.2327026648        0.9543430736
 H        -3.4310019795        4.0853307969       -0.3200349402
 Na       -7.0786302766        4.3266692499       -1.7495226095
