117

 C        -3.9464710020        0.8719747014        9.1893394535
 C        -4.3476530729        2.3788481724        8.8958256410
 O        -3.5289915809        3.1523831977        8.6065416778
 C        -5.9271440947        2.9450106294        9.0984737184
 C        -6.2991806820        3.0293719000        7.6095592579
 O        -6.9856481806        2.1194628994        7.1664495105
 C        -5.9220319966        4.2348130014        6.7081518672
 C        -5.5220924442        4.0606553583        5.2395750256
 C        -6.0971345581        5.0743290889        4.2533381576
 O        -6.9554365591        5.8603618143        4.5381816319
 C        -5.5027415404        5.1531962674        2.7584364082
 C        -5.6857381182        3.8605697625        1.9952517671
 O        -4.8063948124        3.0004589151        2.1338457825
 C        -6.8645127788        3.4858853523        1.1581716535
 C        -6.5744389407        2.8763858388       -0.1999807480
 C        -7.9149700078        2.3216277866       -0.7062148653
 O        -8.6298133415        3.1763925766       -1.2188635788
 C        -8.4584567913        0.8336842722       -0.2995405230
 C        -9.7053662265        1.1296327498        0.5544085587
 O        -9.5581296694        1.3804843402        1.7361550919
 C       -11.1253830519        0.6833081278       -0.0382649502
 C       -12.2560277129        1.5152306057        0.6193413862
 C       -12.2398201646        2.9450082518        0.0887577889
 O       -11.1355974436        3.4026883237       -0.1044435747
 C       -13.6022284034        3.7416242573       -0.0550407308
 C       -13.8575466700        3.8594549430       -1.6099594664
 O       -12.9508889724        4.0417398428       -2.3869442072
 C       -15.3486516854        3.6733785309       -2.0790408896
 C       -15.3862933316        4.0604454481       -3.5153479820
 C       -14.8963813719        5.4416854649       -3.8933934364
 O       -14.4047364636        6.1371830773       -3.0624004373
 C       -14.9005540802        5.9162695929       -5.4238190981
 C       -13.5117993473        5.7807397522       -6.0121472001
 O       -13.2046048618        4.8059302075       -6.6585315722
 C       -12.5079603122        6.8060054389       -5.6522260836
 C       -11.1406370387        6.3628069874       -6.1707093509
 C       -10.8533858360        5.0740556264       -5.3599554035
 O       -11.0360920142        5.0662222629       -4.1914458086
 C       -10.4669145967        3.7102318080       -5.9783986197
 C       -11.2226520673        2.5286318803       -5.4426414822
 O       -11.4041624642        2.2795017436       -4.2379282227
 C       -11.8493533129        1.4295438181       -6.3114065692
 C       -10.4955187824        3.7194952681       -7.5341440442
 C        -8.9659270438        3.4056585116       -5.4358030690
 C       -15.9537643530        5.1398627361       -6.1255570233
 C       -15.4343794149        7.3899257352       -5.2969876805
 C       -14.7077155339        2.9829522524        0.6938073953
 C       -13.2586303640        5.1897360182        0.5251352893
 C        -8.5788186456        0.1575037912       -1.6972456118
 C        -7.5009164286       -0.0634890729        0.5518616859
 C        -6.2232372134        6.3472739112        2.0770497544
 C        -3.9997849054        5.5651836814        2.9290303847
 C        -6.8078734444        1.7935520058        9.7776887760
 C        -5.8944970425        4.3122380977        9.8763156926
 H        -4.7459843681        0.2772713372        9.6229761226
 H        -3.0128837792        0.8931821629        9.7640952151
 H        -3.9170845995        0.5153962750        8.1221557618
 H        -5.1324537166        4.8132133442        7.2814937035
 H        -6.7883822460        4.9215357926        6.6221434331
 H        -5.8394773192        3.0872455316        4.8263048514
 H        -4.4423014323        3.8938741412        4.9612334559
 H        -7.6056094352        4.2893216477        0.9498471776
 H        -7.4024524505        2.8588933678        1.9049274884
 H        -5.8607327419        2.0086548198       -0.1410269656
 H        -6.2548511154        3.7003873107       -0.8171973819
 H       -11.1164250652       -0.3540008905        0.3460479044
 H       -11.2580903420        0.6029181469       -1.0921805965
 H       -12.0241643035        1.6638347105        1.6578360733
 H       -13.1635039472        0.9382970362        0.6193326716
 H       -15.9789392340        4.3615838607       -1.4574789604
 H       -15.7588827484        2.7036310471       -2.0051955967
 H       -16.3763657541        3.9406691575       -3.9478297454
 H       -14.7539574115        3.4623825286       -4.1208020296
 H       -12.4166078119        6.8634288355       -4.5114697802
 H       -12.6789001531        7.9082607500       -5.8731080027
 H       -10.3950962269        7.1250454644       -5.8138004694
 H       -11.1190998565        6.3235517447       -7.2481646507
 H       -11.2609341081        0.4709985152       -6.2694771734
 H       -12.0284558851        1.5654156694       -7.4034615718
 H       -12.8186387508        1.2155539582       -5.9780546602
 H        -9.5346864688        3.9768943875       -8.0428431317
 H       -11.4314038940        4.1750951131       -7.9625814562
 H       -10.5242755957        2.6142930234       -7.8807932427
 H        -8.9812833978        3.2160466306       -4.3362814853
 H        -8.3260399239        4.2991590436       -5.6281166632
 H        -8.5405194608        2.4756689347       -5.8497844673
 H       -15.5724196011        4.1204433191       -6.2915793735
 H       -16.1060881851        5.6460145739       -7.1108503675
 H       -16.8361932172        5.1345268870       -5.5727536409
 H       -15.8215802430        7.7831047461       -6.3234371237
 H       -14.6559190098        8.0829573478       -4.9703505306
 H       -16.3566060366        7.3621865402       -4.6536337583
 H       -14.2290116588        2.6487798140        1.6171841105
 H       -15.1520539542        2.1054790408        0.2523674227
 H       -15.5910257517        3.6136883993        0.9361459983
 H       -12.6136903553        5.0879629851        1.4397203840
 H       -14.1728741157        5.8218956671        0.6524622805
 H       -12.5709709595        5.7406921093       -0.2192053313
 H        -9.2113340629       -0.7815145703       -1.6882858399
 H        -7.6383616998        0.1076423088       -2.1048271860
 H        -9.2393957262        0.7843704465       -2.3270678247
 H        -7.6144721545        0.2907837070        1.6112775321
 H        -6.4402279629        0.0050915677        0.2288662345
 H        -7.7775452012       -1.1114426849        0.5025159639
 H        -6.0693811963        7.2253227897        2.6645918547
 H        -7.3442579443        6.2513627112        1.9780185211
 H        -5.8685627828        6.5692279896        1.0620501064
 H        -3.7052934769        5.4223296507        3.9637619974
 H        -3.8581262368        6.6162241307        2.6984732113
 H        -3.2509885201        5.0198041862        2.3768141832
 H        -6.8377071294        0.8764922953        9.1648765237
 H        -7.8351087229        2.1259191903       10.0807496655
 H        -6.3421034842        1.5406276966       10.7314178592
 H        -5.3968337911        5.0607078863        9.3166670347
 H        -5.2876854221        4.0199399942       10.7232020429
 H        -6.8483693449        4.6964836286       10.2581478116
 Na      -10.5123015763        3.4672046108       -2.3522275746
