117

 C        -4.9713916416        6.4189476067        0.9724126060
 C        -5.2698425490        5.4501404440       -0.2205730767
 O        -6.3921339978        5.2326998348       -0.4387572341
 C        -3.9167069138        4.9781526836       -1.2055794143
 C        -4.2512082429        5.2473769864       -2.6992948193
 O        -5.4297195863        5.3982336210       -3.0392109422
 C        -3.2311531830        5.5200987022       -3.8490748824
 C        -3.6779697748        4.7015168593       -5.0821494405
 C        -4.7833957182        5.3426517911       -5.8505928476
 O        -5.1682920371        6.4147564513       -5.4696828007
 C        -5.3246683697        4.7084921806       -7.1211143308
 C        -6.5093602938        3.9823588619       -6.2907865677
 O        -6.0887177897        3.1722467496       -5.5273790563
 C        -7.9765792732        4.3707538398       -6.3709259989
 C        -8.7197832708        3.0400695064       -5.9654396870
 C        -8.7399724398        2.8559347075       -4.4025301920
 O        -8.9162779311        3.8514429533       -3.7864496099
 C        -9.1258327333        1.3145511764       -3.6951974348
 C        -8.7001400611        1.2367779337       -2.2411600532
 O        -7.7502527632        2.0029135219       -1.8393905381
 C        -9.3152262664        0.1066374762       -1.3621322189
 C       -10.1594519321        0.7274806982       -0.2277350120
 C       -10.6552169242        2.1525094142       -0.2472552785
 O       -10.5011091514        2.8361328956       -1.2423251860
 C       -11.2874536306        2.8102417508        1.1788250620
 C       -10.0272625798        2.9377053915        2.0731155306
 O        -9.0035492547        3.2611175300        1.5604642698
 C        -9.9624514591        2.7734775223        3.5732066383
 C       -10.9698839226        3.5400615962        4.5859914571
 C       -11.4471982062        2.7095262941        5.8097607742
 O       -11.1150808541        1.5933058349        5.8963744717
 C       -12.6121152166        3.2912080230        6.7231558342
 C       -13.8305323855        3.3126600303        5.7130728100
 O       -13.8081212975        2.7168770073        4.6429935498
 C       -15.0669062351        3.9699862075        6.2362295661
 C       -16.4258046373        3.1491717866        6.1545347666
 C       -17.4765096410        3.9908329920        5.4037153297
 O       -17.3736884422        5.2401052225        5.3417114772
 C       -18.5041041716        3.3433143776        4.5435277645
 C       -18.1034626105        3.2502851086        3.0208078488
 O       -17.7871768296        2.2597921248        2.4769355806
 C       -18.0698752879        4.5661595786        2.2268525035
 C       -18.8546368892        2.0453539440        5.2861811629
 C       -19.7614116481        4.3131063859        4.7066012765
 C       -12.7811013873        2.4263950881        8.0141051717
 C       -12.3925124001        4.7510693712        7.1214642397
 C       -11.7173665031        4.2568140108        0.9444876884
 C       -12.4380460145        1.9268140157        1.6749635451
 C       -10.6336835597        1.0534958962       -3.9597943405
 C        -8.3152136788        0.2441683441       -4.4017791819
 C        -5.9250905396        5.9547375343       -7.8957848464
 C        -4.5147968879        3.7616344483       -7.9142984371
 C        -2.6360466869        5.6126864219       -0.5781103638
 C        -3.7938373794        3.4576526303       -1.0818167585
 H        -5.3840193397        6.1181924614        1.9457315659
 H        -5.4665001028        7.3592650393        0.8230736380
 H        -3.9441559372        6.6804564220        0.9499552891
 H        -2.3673223581        5.1337910776       -3.5491870075
 H        -3.0008702434        6.5821466894       -4.0216413672
 H        -4.0079479513        3.8404349342       -4.6664087282
 H        -2.9286090354        4.5564671034       -5.9028604324
 H        -8.2979170044        4.6640555965       -7.3194249164
 H        -8.0987930741        5.2061799190       -5.7472392090
 H        -8.2326372086        2.2626907630       -6.4931618169
 H        -9.8326689969        3.1387000367       -6.3616982465
 H        -8.5546412530       -0.5655960564       -0.9399905172
 H        -9.9200445005       -0.4572656563       -2.0328412067
 H        -9.4903713726        0.8678324650        0.6656435282
 H       -10.9127987800        0.0251897417        0.0756591290
 H        -8.9064364106        3.1801522244        3.8226956481
 H       -10.0758146635        1.6966877962        3.9313444774
 H       -11.7590893628        3.9675148997        4.0102449867
 H       -10.4554519168        4.3816578217        5.0671626381
 H       -15.0723408801        4.9609780176        5.8648561073
 H       -15.1140815359        4.1454068128        7.3174801626
 H       -16.7591557373        3.0012233306        7.1826684428
 H       -16.3211776307        2.1962596347        5.6576322280
 H       -19.1496578979        4.8543096330        2.1926831133
 H       -17.5966123317        4.2958775045        1.1984899891
 H       -17.6103986113        5.4293684593        2.7819862761
 H       -19.5681756944        1.5462726851        4.6967856743
 H       -19.2100547817        2.3403451459        6.3720404494
 H       -18.0082357332        1.3302605434        5.3553384894
 H       -20.5395160752        3.8351795308        4.1830032962
 H       -19.4590396765        5.1109559728        4.1037292585
 H       -19.9567555614        4.4646988369        5.7214187739
 H       -13.7595127104        2.3382000620        8.4132458153
 H       -12.0042412215        2.7800446118        8.6015633875
 H       -12.5409619683        1.3846269110        7.7391897462
 H       -13.1478716810        4.9207357718        7.7829830837
 H       -12.5417025016        5.5270221603        6.3151113203
 H       -11.4095888364        4.9466428420        7.3605230484
 H       -10.9262272455        4.9271820131        0.7474321232
 H       -12.4604011183        4.6390626764        1.7061213402
 H       -12.2306096986        4.3496363169       -0.0643733209
 H       -13.2043249016        2.4776391418        2.2405951522
 H       -12.0486443212        1.2753374624        2.3803995516
 H       -12.8732121756        1.3436997916        0.8376828950
 H       -10.7983968714        0.0253571255       -3.7915559854
 H       -10.9577488568        1.2719695302       -4.9663717556
 H       -11.0531141786        1.8130767097       -3.2672435453
 H        -8.4106096819        0.3153756549       -5.4971265655
 H        -8.4243386002       -0.8443284075       -4.2118148928
 H        -7.2537473751        0.3808585177       -4.1071792523
 H        -5.2181682669        6.7065110877       -8.0464985630
 H        -6.6763036623        6.5267688296       -7.2633724175
 H        -6.3084325051        5.7082290297       -8.7931162665
 H        -4.6181315131        2.8134654379       -7.5343977840
 H        -3.5006931576        4.0662152432       -7.7844428309
 H        -4.7669993429        3.6834151334       -8.9986359303
 H        -2.9553998167        6.6540081956       -0.3234234031
 H        -1.7942373105        5.6183296535       -1.2477910676
 H        -2.3284310635        5.0836601292        0.3729090909
 H        -4.4737603700        3.1001991932       -1.8317964639
 H        -3.8990033290        3.1126627491       -0.1171132578
 H        -2.7144410358        3.1992571568       -1.2929664299
 Na       -7.3766340767        4.2510211158       -2.2513305235
