117

 C        -5.1104089939        6.1707770418        1.1710104554
 C        -5.1197616875        5.3832257694       -0.2161045441
 O        -6.2875619655        5.1177689201       -0.5102139372
 C        -4.0371751065        4.8716340767       -1.1673700903
 C        -4.3590892135        5.3912411354       -2.6380616576
 O        -5.5558923046        5.4818147812       -3.0532962087
 C        -3.3270127723        5.4184244008       -3.7428897787
 C        -3.5547487275        4.5139429706       -5.0112296466
 C        -4.7558005154        5.3401873171       -5.7962920612
 O        -5.4240173911        6.2561670245       -5.3649475060
 C        -5.3451742211        4.6216514696       -7.1784424289
 C        -6.5650489362        3.9039423481       -6.2732953329
 O        -6.0753644235        3.0815669903       -5.4790788522
 C        -7.9796169828        4.2694583914       -6.2892767380
 C        -8.7379288846        2.9191040873       -5.8954514255
 C        -8.9337228553        2.8059409985       -4.3686543091
 O        -8.9656900103        3.8099946475       -3.6782951165
 C        -8.9706071720        1.3264997515       -3.8154701773
 C        -8.5729916707        1.2877115219       -2.3415923194
 O        -7.7985675249        1.9794319180       -1.7653729391
 C        -9.1481235676        0.2147025230       -1.3095625503
 C       -10.0976337350        0.6766493601       -0.1618569933
 C       -10.6055850013        2.2417305678       -0.2743213933
 O       -10.4122637715        3.0046787224       -1.1724881477
 C       -11.2714763248        2.7898762406        1.0609388498
 C       -10.0354191505        3.0011754516        2.0531632537
 O        -8.9586849294        3.3331763037        1.4854698853
 C        -9.9358668348        2.8356722507        3.6736310734
 C       -11.0220338666        3.6280013212        4.3785320247
 C       -11.4340756542        2.8159025570        5.6902303064
 O       -10.9195246916        1.7173597744        5.9150203225
 C       -12.5863715361        3.3976677002        6.7018668325
 C       -13.9733478219        3.3161484034        5.7575283503
 O       -13.8912715680        2.8092333470        4.6735375839
 C       -15.1808714675        4.1152630785        6.2774449422
 C       -16.5463203302        3.3510719736        6.2107106545
 C       -17.4422382125        4.1962223773        5.2644349198
 O       -17.3118533671        5.3659827766        5.1692022236
 C       -18.6178507918        3.4268524235        4.5359785702
 C       -18.1057816632        3.2301767076        3.0503422238
 O       -17.8448390474        2.1421254638        2.6846137992
 C       -17.9098177901        4.5363134769        2.2589673048
 C       -18.8624435568        1.9683793557        5.1505453917
 C       -19.9113849188        4.4780049927        4.8900165787
 C       -12.8914044948        2.4797130291        7.8097749588
 C       -12.3697658352        4.9386745979        7.2632378272
 C       -11.6576532802        4.3047089333        0.7033452471
 C       -12.3633056707        1.9900054483        1.7706820373
 C       -10.5620453353        0.9446538239       -3.8598183289
 C        -8.1997153657        0.0990588896       -4.4239918883
 C        -5.8625123494        5.8382681775       -8.1355148537
 C        -4.3755186760        3.7630939493       -8.0058927801
 C        -2.6740048703        5.5799815357       -0.6711803130
 C        -3.7832170352        3.2649439283       -1.2606188421
 H        -5.6635627502        5.4547274367        1.9137733230
 H        -5.7067046862        7.0871001456        1.2293032671
 H        -4.1333056116        6.4303231109        1.4602882800
 H        -2.3293807294        5.2603223439       -3.2572338274
 H        -3.2124972687        6.4152006606       -4.1539242404
 H        -3.9736715246        3.5887442737       -4.7359951528
 H        -2.8045429676        4.4547483308       -5.6811231866
 H        -8.3875115531        4.7349230450       -7.1831049452
 H        -7.9466200801        5.0786661212       -5.4121713076
 H        -8.3930729685        2.0687355354       -6.4401499062
 H        -9.7541517263        3.1357454395       -6.2244829616
 H        -8.2133406679       -0.2223352610       -0.9631632139
 H        -9.6718217938       -0.5743059909       -1.8845690543
 H        -9.6437550524        0.6654384164        0.8627263457
 H       -11.0325026718       -0.0414788747       -0.1100892027
 H        -8.9650614988        3.1092331130        4.0198222299
 H       -10.2060171038        1.7390545319        4.0082610903
 H       -11.7518613698        3.6649624512        3.6324587788
 H       -10.7904967806        4.6472318086        4.7279685316
 H       -15.1053528506        5.0723746344        5.6239623650
 H       -15.2672025834        4.5847008470        7.2667831486
 H       -16.9789905153        3.3298223342        7.2452285463
 H       -16.5077011554        2.3269624262        5.7975469822
 H       -18.8287278051        4.8183653778        1.8343228759
 H       -17.0995984553        4.4131989692        1.5914950133
 H       -17.6955623616        5.3429157874        3.0564199817
 H       -19.8086737359        1.5850486229        4.6577070697
 H       -18.8107755059        1.9180196656        6.2252440954
 H       -18.0965989899        1.2858136784        4.7231285813
 H       -20.6860959121        4.2312682082        4.2522987702
 H       -19.4963632629        5.3651867969        4.5945774961
 H       -20.2411250103        4.3983156098        5.9529738872
 H       -13.8993636393        2.6719764545        8.0376421661
 H       -12.1878929955        2.5965454595        8.6146552646
 H       -12.9579926048        1.4891799225        7.5353482934
 H       -13.1706094276        5.1394202936        7.9474566520
 H       -12.3148014193        5.7138358291        6.5547225006
 H       -11.3773526591        4.9335936442        7.6008819591
 H       -10.7448565393        4.8360863399        0.3232422823
 H       -12.1007196459        4.7738584688        1.6230790062
 H       -12.3689446535        4.5560354325       -0.0917949514
 H       -12.8035006759        2.4754536959        2.5796953140
 H       -12.0388295140        1.0606541543        2.1981087729
 H       -13.0801157712        1.7697811319        1.0441880192
 H       -10.5179218803       -0.1700455957       -4.1000893811
 H       -11.2122373588        1.4832502611       -4.4618618277
 H       -10.8374238964        1.2505139070       -2.8944807268
 H        -8.4702559637        0.0055969678       -5.4734544873
 H        -8.2653075707       -0.9517893034       -3.9647699244
 H        -7.1316223666        0.2092132847       -4.3338308740
 H        -5.0241638135        6.4255130597       -8.4270336545
 H        -6.4737889758        6.5638921773       -7.6380160724
 H        -6.3645551189        5.4877421349       -9.0876522945
 H        -4.4684824207        2.7112071613       -7.8850520325
 H        -3.4267296688        4.0273192290       -7.6885138258
 H        -4.4682209273        3.9710442483       -9.0494260711
 H        -2.8098482064        6.6029801892       -0.5850491436
 H        -1.9941274221        5.3451396998       -1.4982041986
 H        -2.2997054014        5.2080314809        0.2058026294
 H        -4.5420012889        2.9572230374       -1.8995029788
 H        -3.6123555060        2.7129013269       -0.2631109650
 H        -2.8479806988        3.1713311981       -1.6368875679
 Na       -7.3535613061        4.2280989189       -2.2233989267
