117

 C        -4.8116945161        5.3937179704        1.2636158991
 C        -5.2637962546        5.1295334792       -0.0638543820
 O        -6.3850827100        4.7545037556       -0.3077513591
 C        -4.0802968238        4.8183175962       -1.1394146691
 C        -4.5405348910        5.3943229640       -2.6349337512
 O        -5.6916511690        5.5794797050       -2.9043473194
 C        -3.3711613295        5.3321597013       -3.7021325263
 C        -3.6484114523        4.7053871920       -5.0534156078
 C        -4.9221415876        5.3705706294       -5.7701085989
 O        -5.4769727936        6.3597090247       -5.4003701968
 C        -5.4285122551        4.4883756087       -7.0912655314
 C        -6.3373805589        3.5797315413       -6.3601819646
 O        -6.0174069582        2.5765298419       -5.7677661585
 C        -7.9074263983        3.8738947488       -6.3613892268
 C        -8.9162428119        2.8715575147       -5.8378084549
 C        -8.8786137436        2.6799589804       -4.3315967020
 O        -9.1142392587        3.7044527857       -3.6906876862
 C        -9.0288603629        1.2175898478       -3.6896202220
 C        -8.5434737435        1.3347523168       -2.1140778242
 O        -7.5128921495        1.9958944362       -1.8201062743
 C        -9.0787609670        0.3204220625       -1.0771339763
 C       -10.0908606875        0.6941486227       -0.0541312646
 C       -10.4594124093        2.2364771174       -0.2775917854
 O       -10.1387269039        2.8012700097       -1.3206243942
 C       -11.0695264972        2.9958918110        0.9175208012
 C        -9.7782405432        3.2409654553        2.0643313675
 O        -8.7397598173        3.5124573638        1.6598125964
 C       -10.0700387670        2.9304597993        3.5176518055
 C       -11.1750448958        3.8218877022        4.2782568238
 C       -11.4910420754        3.0189910216        5.6508197373
 O       -10.6832814181        2.2988592140        6.0886558975
 C       -12.6520933286        3.5910747041        6.5243739187
 C       -14.0624547862        3.6740663483        5.7651201786
 O       -14.3067317009        3.0137790306        4.7586565611
 C       -15.1722372985        4.4916560049        6.4337301651
 C       -16.4527603318        3.7046149694        6.2050029128
 C       -17.5089930394        4.3042850766        5.2696780617
 O       -17.2862838630        5.4423977937        4.7726715799
 C       -18.7128678240        3.5637386179        4.7030884364
 C       -18.1107083936        3.3693539669        3.1916296103
 O       -18.0021792348        2.2257393015        2.7294648230
 C       -17.7699187462        4.5437110645        2.2149439702
 C       -19.1322411387        2.1943478700        5.3832275689
 C       -20.0682764462        4.4006691008        4.6610592044
 C       -12.8953285045        2.4853532529        7.5336454833
 C       -12.1027575373        4.8528585283        7.1761859673
 C       -11.7582183251        4.3541713526        0.5819027377
 C       -12.1069870818        2.0660722502        1.4994637866
 C       -10.5092896882        0.7277850995       -3.7432340075
 C        -8.0338985851        0.3793320566       -4.4516731750
 C        -6.0380305183        5.4082956846       -8.0657312347
 C        -4.1986804287        3.5159195427       -7.6395875691
 C        -2.6797581149        5.4728918577       -0.8239576385
 C        -3.9862871131        3.2842956543       -1.2623152166
 H        -5.4489583303        4.7737223270        1.8457202418
 H        -5.1125586572        6.4245063086        1.5214383682
 H        -3.7295294687        5.3140391627        1.5169003435
 H        -2.4613728667        4.9506667954       -3.3272773451
 H        -3.0320432688        6.4066817217       -3.9637127352
 H        -3.7984803009        3.5679640356       -5.0336779135
 H        -2.6587878049        4.9814656102       -5.7765480238
 H        -8.1742332679        3.8893790808       -7.4633918200
 H        -8.1481957495        4.8523260014       -5.9820828023
 H        -8.7201132941        1.9276004675       -6.3419760744
 H        -9.9803132380        3.1902130082       -6.1097244504
 H        -8.1035203168        0.0432349526       -0.6114518031
 H        -9.3760659139       -0.5369900717       -1.6943776095
 H        -9.7591137790        0.4874084178        0.9708020919
 H       -10.9818395617        0.1877409782       -0.1383792125
 H        -9.1875220936        2.9584784748        4.1952011844
 H       -10.3087801258        1.9486427247        3.4680773805
 H       -12.0549809335        3.8536160951        3.5690771076
 H       -10.8131138845        4.8424713153        4.4527017978
 H       -15.3378752433        5.4974025882        6.0763576367
 H       -15.0537590869        4.6818550829        7.5329015369
 H       -17.0016501028        3.4568648046        7.1122186483
 H       -16.2767527487        2.7716149213        5.6391301262
 H       -18.3349746963        4.2477056852        1.3322633858
 H       -16.6581687613        4.6106954699        2.0640117886
 H       -18.0019682051        5.5186387069        2.5395669671
 H       -20.1264588650        2.0381653105        5.1722808415
 H       -18.9500783348        2.2597810928        6.5024865382
 H       -18.5793672218        1.3088201848        5.1189578044
 H       -20.7193174842        3.8582960065        3.8556420702
 H       -19.8535625441        5.5093029724        4.5213347752
 H       -20.5427422876        4.1384409392        5.6594840143
 H       -13.6077102980        2.6649417534        8.3711227688
 H       -11.9273523759        2.1234467424        7.8532820409
 H       -13.4492433870        1.6651270607        6.9528487279
 H       -12.9578726411        5.3356752137        7.6837920287
 H       -11.7269773816        5.5698874028        6.3207976670
 H       -11.1679391078        4.6091955830        7.7489173741
 H       -11.2655288438        4.9935335515       -0.0888784931
 H       -12.0558417195        4.8158593852        1.4933590689
 H       -12.8000646168        4.2581817384        0.2206163037
 H       -12.1860799448        2.2216445594        2.6237954755
 H       -11.7349562883        1.0429028494        1.6258660991
 H       -13.1564282506        1.9435279482        1.0380484502
 H       -10.4923245252       -0.1926654407       -4.1906815991
 H       -10.9309445652        1.5140217706       -4.4818802036
 H       -11.1367415370        1.1000746486       -2.9055434206
 H        -8.3605635122       -0.0160940667       -5.4181074317
 H        -7.6423464962       -0.3531098911       -3.8349677821
 H        -7.0752676404        0.8562662285       -4.6417780990
 H        -5.2294891928        5.8575952539       -8.7051470986
 H        -6.5901841010        6.3114320366       -7.5624230733
 H        -6.7651463695        4.9422283356       -8.6820134670
 H        -4.1696206168        2.5155160206       -7.1704477388
 H        -3.1640369468        3.9812298452       -7.5932831300
 H        -4.4743705481        3.3683938225       -8.7384233437
 H        -2.6449968934        6.4480982287       -1.3853153077
 H        -1.9121710420        4.8730341325       -1.1972858127
 H        -2.5838619146        5.6823955935        0.2752596352
 H        -5.0435843396        3.0336715057       -1.0581314671
 H        -3.2840188136        2.8998302190       -0.6243032413
 H        -3.4764166608        2.9870419662       -2.2719423885
 Na       -7.4225798839        4.1633160590       -2.2974501999
