117

 C        -4.0195962509        1.0147114734        9.1330922809
 C        -4.3235669996        2.4828373260        8.9511890401
 O        -3.4831050277        3.2811677806        8.5701602379
 C        -5.7305422199        2.9628812446        9.0584970241
 C        -6.3914402069        3.1035067386        7.6170380463
 O        -7.0918181027        2.2022533747        7.1567877335
 C        -6.0318037356        4.4504477619        6.7424672779
 C        -5.4984299851        4.1984789995        5.3061468260
 C        -6.0989346712        5.1626423795        4.2411155738
 O        -7.0652147383        5.8496952845        4.4464982107
 C        -5.4510734727        5.2300897901        2.7633149583
 C        -5.5926954759        3.7887949531        2.0089856957
 O        -4.6918232615        2.9691941417        1.9797812459
 C        -6.9165526040        3.5117084861        1.2184159582
 C        -6.6159371398        2.7407490647       -0.0502038770
 C        -7.9428492325        2.2517786161       -0.5976880785
 O        -8.6088025937        3.0698633115       -1.2571488064
 C        -8.4463581838        0.8278815803       -0.3415414496
 C        -9.7877317219        0.8847231365        0.5079382778
 O        -9.6914107854        1.4657453978        1.5541331355
 C       -11.1826980948        0.6052317643       -0.0262309552
 C       -12.2442247700        1.4506205859        0.7231187102
 C       -12.1383880369        2.8762691077        0.2571193439
 O       -11.0754334583        3.4351974260       -0.0922327541
 C       -13.4179918588        3.5703991176       -0.0203550287
 C       -13.8217677182        3.7575783018       -1.5535545013
 O       -12.9377367842        3.9404392570       -2.4058929056
 C       -15.2465183305        3.7467741745       -2.0600085839
 C       -15.3363865065        3.9521264804       -3.5555761709
 C       -14.7891379226        5.4214773745       -3.9175822418
 O       -14.3131757017        6.1896071568       -3.1010898636
 C       -15.0893763161        5.9129577481       -5.4034014249
 C       -13.5969201097        5.7660623522       -5.9996717362
 O       -13.3364525272        4.7635162318       -6.6009034856
 C       -12.5697304615        6.8617981874       -5.6432922995
 C       -11.1003483046        6.3323456510       -6.0399384370
 C       -10.9274279682        5.0303364985       -5.2777942910
 O       -10.9988652725        5.1117646349       -4.0512278380
 C       -10.4993742336        3.6002551847       -5.9807153033
 C       -11.3671506284        2.4724027167       -5.3636840359
 O       -11.3316247691        2.2281919914       -4.1756099215
 C       -11.9756847691        1.3354390888       -6.3262864198
 C       -10.5093783322        3.7586295444       -7.5305677455
 C        -8.9861592903        3.4449978563       -5.4417115645
 C       -16.0213855912        5.0051232696       -6.2459474064
 C       -15.4416752079        7.4512191174       -5.3240521181
 C       -14.7131622718        3.0904330366        0.7698003939
 C       -13.1303808121        5.0578701118        0.5112462391
 C        -8.6515745962       -0.0185616053       -1.6413768251
 C        -7.4671823961        0.0329080645        0.5937303320
 C        -6.2977695854        6.3056966322        1.9314997978
 C        -3.9323608618        5.5697326577        2.8700351936
 C        -6.6253082660        1.9965138117        9.7119974353
 C        -5.8075523872        4.3846084052        9.7783320901
 H        -4.8676671959        0.4150150290        9.4049100155
 H        -3.3194197944        1.1339822430       10.0082733949
 H        -3.6148709662        0.6519146145        8.2245990574
 H        -5.2026352130        4.9482313607        7.2984701734
 H        -6.8095938236        5.1737842582        6.5873741044
 H        -5.4227999708        3.1080592669        4.9085985355
 H        -4.3702163639        4.3619821594        5.1789921501
 H        -7.5585419082        4.3980723056        0.9507698913
 H        -7.5674797863        2.9844970219        1.9914123090
 H        -6.0392603019        1.9200047765        0.2551600966
 H        -6.1165491197        3.4111521325       -0.8084049020
 H       -11.4022234193       -0.4414570183       -0.1042459278
 H       -11.1297193828        0.9416768450       -1.0819528569
 H       -12.1437266170        1.3635597149        1.7774373450
 H       -13.2709200770        0.9702771378        0.5278344657
 H       -15.7342316765        4.5190398630       -1.5995968876
 H       -15.7500402567        2.8288782183       -1.7908413228
 H       -16.3941130525        4.0242593122       -3.8685214848
 H       -14.8358780215        3.2437123594       -4.2073878421
 H       -12.5789767575        7.2398553600       -4.5666180013
 H       -12.8637712029        7.7884980685       -6.1895649007
 H       -10.2666968689        7.0614050210       -5.7287741693
 H       -10.9891927153        6.2189459650       -7.1059467776
 H       -11.4993027852        0.3625218649       -6.1343401290
 H       -11.8780622340        1.5501742807       -7.3549982107
 H       -13.0670667484        1.1375822822       -6.2580164777
 H        -9.5385834058        4.1191454777       -7.9013403225
 H       -11.4020683079        4.3889767463       -7.8042611021
 H       -10.7106906856        2.8775758268       -8.0840440297
 H        -9.0174264083        3.5234212356       -4.3840541379
 H        -8.3513904929        4.1486088830       -5.8165073385
 H        -8.6143364067        2.3469455522       -5.5825395669
 H       -15.4663886353        4.0304904547       -6.2917383546
 H       -16.0954293039        5.4443015317       -7.2877217134
 H       -17.0117399835        4.8509653514       -5.8136589783
 H       -15.4991660387        7.7849569129       -6.3713660457
 H       -14.5924372907        8.0955401586       -4.8583614982
 H       -16.4111205881        7.6424898079       -4.8703919011
 H       -14.5330985381        3.0577777340        1.8848623082
 H       -15.1435344480        2.0774274525        0.5380287902
 H       -15.5709188398        3.7438694909        0.4935857009
 H       -12.4070076952        5.0824760559        1.3393771811
 H       -14.1429353271        5.4347716504        0.7702425303
 H       -12.7371563650        5.7919894400       -0.2563703813
 H        -9.2037096304       -0.8960707369       -1.4501082258
 H        -7.6099489551       -0.1819214732       -2.0851225622
 H        -9.2994756320        0.5306676601       -2.3544301943
 H        -7.7404996168        0.3931457565        1.5933778478
 H        -6.4202634386        0.0758704885        0.4192038948
 H        -7.7311860309       -1.1025502494        0.5481845713
 H        -6.1083102008        7.3512873747        2.1328567548
 H        -7.3801212541        6.1137942797        2.1857801243
 H        -6.2945568722        6.1617668613        0.8671377311
 H        -3.4743998834        5.2930724668        3.8298399520
 H        -3.7318565565        6.6786929077        2.6710119399
 H        -3.3267116594        5.0614701004        2.1005698229
 H        -6.7834473130        1.0783053192        9.1648634869
 H        -7.5583873869        2.5297807033        9.9632941513
 H        -6.2326203211        1.7325539394       10.6687057111
 H        -5.9137105699        5.0970706919        8.9866866818
 H        -4.8284018426        4.5682452119       10.3005025318
 H        -6.6064041703        4.4938857430       10.5493268710
 Na      -10.4856745331        3.4970046851       -2.4025155124
