117

 C        -4.7799267382        4.3481052903        1.5044879666
 C        -5.1706691813        4.5710136025        0.0769480621
 O        -6.3763198324        4.6997703290       -0.1131411095
 C        -4.1065476066        4.5715535106       -1.0078159029
 C        -4.7504497422        5.2648999964       -2.4467664591
 O        -5.9541209610        5.0102499296       -2.7100087718
 C        -3.9186467103        5.8409992475       -3.6175104230
 C        -3.8076245472        4.8225411147       -4.7636503811
 C        -4.9869484428        5.1412481561       -5.9180308648
 O        -5.3083832633        6.3065573743       -5.9782689990
 C        -5.5060344688        4.0638227901       -6.9522101835
 C        -6.6394269815        2.9988180930       -6.5603535100
 O        -6.2892975002        1.9394313095       -6.1465598198
 C        -8.0898387258        3.4671440925       -6.6964102346
 C        -9.0098105945        2.5196595074       -5.9287324744
 C        -8.7643526222        2.5148447658       -4.4228110364
 O        -8.8108518012        3.5880143119       -3.8466672960
 C        -8.7179812833        1.1516486845       -3.5860301951
 C        -8.2260182255        1.3299694140       -2.1528501809
 O        -7.2912882296        2.0701783820       -1.9820491284
 C        -8.6041979931        0.3001775569       -0.9640139121
 C        -9.7534945147        0.7387245300       -0.0814569513
 C       -10.0821617591        2.2241822352       -0.2099675024
 O        -9.5201532364        2.7905670167       -1.1517827733
 C       -10.9748753215        3.0241003355        0.7328574158
 C        -9.9588063552        3.4506226705        2.0172160488
 O        -8.9696601429        4.0102401018        1.6827380314
 C       -10.0958933175        3.0525733415        3.4856927814
 C       -11.3766330923        3.7224675994        4.1624609911
 C       -11.3983277259        3.5522020904        5.6476550052
 O       -10.5107587963        2.9568144607        6.1668877580
 C       -12.7258193951        3.8559789718        6.4947421951
 C       -14.0281010929        4.1441471187        5.7013060722
 O       -14.1477958293        3.7535921201        4.5776791799
 C       -15.2289542572        4.7598113315        6.5421065759
 C       -16.5994082062        4.0916840089        6.2873296752
 C       -17.5413010859        4.7608750515        5.2149575620
 O       -17.3125990532        5.9274702357        4.8910277187
 C       -18.6102364018        3.9028949408        4.5506477776
 C       -18.3499854523        3.3026947463        3.1941215248
 O       -18.3891315945        2.1490093732        3.0278527711
 C       -17.9296658366        4.0611970978        1.8604965009
 C       -19.0636305723        2.6997797791        5.3557823866
 C       -19.8325240210        4.9520621104        4.4772171510
 C       -12.8976219582        2.7595754131        7.4890667620
 C       -12.3902565342        5.2416435355        7.2686874254
 C       -11.3894333569        4.3741271324        0.1235041750
 C       -12.1780271576        2.2160081240        1.2367588768
 C       -10.3151239805        0.7273571755       -3.5167285784
 C        -7.8254372381        0.0531675189       -4.2902135289
 C        -6.1439194227        4.9147195385       -8.2115192437
 C        -4.3127189129        3.2322389247       -7.4008011337
 C        -2.7189276430        5.1848266617       -0.4856818944
 C        -3.8598394846        3.0386147120       -1.5337721281
 H        -5.5636011683        4.7669669484        2.2526074173
 H        -3.8594492787        4.9250166408        1.6499590054
 H        -4.7237084788        3.3186476794        1.8177015261
 H        -2.9574660121        6.1232009809       -3.3664819040
 H        -4.4645800422        6.8526208956       -3.9197826801
 H        -3.9994317827        3.7806441938       -4.3751853304
 H        -2.6967363297        4.7715517529       -5.1881413217
 H        -8.4559064448        3.4718705575       -7.7635989727
 H        -8.2190901307        4.5245961298       -6.2541856475
 H        -9.0529772188        1.5636781458       -6.3271306498
 H       -10.0576249861        2.9602912924       -5.9968679016
 H        -7.6108724445        0.2656298816       -0.4127984887
 H        -8.8350288097       -0.7510800641       -1.2360962738
 H        -9.6164784799        0.3629191969        0.9811905013
 H       -10.6688278564        0.2419782761       -0.3364785234
 H        -9.3038176482        3.5694448679        3.9952000187
 H        -9.9190658552        2.0870550046        3.7492291962
 H       -12.3188104680        3.2712806161        3.7508652052
 H       -11.4374734246        4.8080178594        3.9682748829
 H       -15.1653874997        5.8538806514        6.2208102147
 H       -15.0189691514        4.6892340935        7.6729307254
 H       -17.2686622894        4.0679614791        7.1915767335
 H       -16.4428277025        3.0059310783        5.9820000811
 H       -16.9882535114        3.7181788653        1.7392401739
 H       -18.0578457357        5.0911525782        1.8135016212
 H       -18.5616500042        3.7409872126        1.0335778387
 H       -19.9304074774        2.3640923195        4.9130520289
 H       -19.3827383965        2.8215634374        6.4208038195
 H       -18.3117819321        1.9626029433        5.3788179034
 H       -20.6119459954        4.3837764013        3.8844906396
 H       -19.5128799698        5.9231118664        4.1031846907
 H       -20.2283524174        5.2512690053        5.5475447659
 H       -13.6713141045        2.9938355784        8.1925679854
 H       -12.0307229677        2.7073510168        8.0820926225
 H       -13.0138078752        1.8107807216        6.9353193716
 H       -12.8389999819        5.2772063061        8.2380392289
 H       -12.7299486884        6.1139806492        6.5877611422
 H       -11.3918749268        5.1894970393        7.6047872443
 H       -10.5462137928        5.0195295549       -0.0329810218
 H       -12.2118242218        4.9006930720        0.6799569919
 H       -12.0013325163        4.1645707335       -0.8187417792
 H       -13.1168231010        2.7316262795        1.4370077853
 H       -11.9715746710        1.5542005409        2.0412568890
 H       -12.5911406398        1.4706897684        0.5177839003
 H       -10.4968022322        0.1665958297       -2.5358831552
 H       -10.5240118334        0.0812192602       -4.3671526627
 H       -10.9306266047        1.6964723983       -3.5710727978
 H        -7.7353135905       -0.1123573379       -5.3681379119
 H        -8.0114998677       -0.8432491981       -3.7038828030
 H        -6.7640335476        0.2022572397       -4.0295624448
 H        -5.2141575840        5.4480708621       -8.4867837420
 H        -7.0583058601        5.6018202599       -7.9892035978
 H        -6.4857514707        4.3920331347       -9.0919833820
 H        -3.8984492689        2.9280448546       -6.5172103492
 H        -3.5846480647        3.7815533493       -7.9694335778
 H        -4.5841193703        2.3757093440       -8.0709033071
 H        -2.8109407595        5.9494646344        0.2209388163
 H        -2.2691565486        5.6721388786       -1.3253431021
 H        -2.0832210131        4.4190825173       -0.1438766954
 H        -4.6674039074        2.7571936805       -2.2139189358
 H        -3.8386547527        2.3326754323       -0.7195259102
 H        -2.8630920181        3.2131979475       -2.0241703704
 Na       -7.8106149514        4.1168820951       -1.7372986674
