117

 C        -4.4848533625        3.6138456008        1.2708372765
 C        -5.2220263812        4.3242956555        0.0895591101
 O        -6.3596946024        4.8304235249        0.1680397970
 C        -4.3361805884        4.4199265299       -1.2096215396
 C        -5.0407391238        4.8857259938       -2.4537134643
 O        -6.2483510076        4.9577257930       -2.4788107551
 C        -4.2012721631        5.2994800050       -3.6083422508
 C        -4.3807687875        4.3088165489       -4.8065512365
 C        -5.1811187892        4.9639218780       -6.0344326648
 O        -5.6944983504        6.0544388644       -5.9145650446
 C        -5.4157466062        4.0083814284       -7.2579534341
 C        -6.5664721366        3.0708024865       -6.5462823994
 O        -6.2568570250        2.0888099898       -5.9358809562
 C        -8.0083890709        3.4685355361       -6.4709342711
 C        -8.8625029541        2.2903753199       -5.7421402161
 C        -8.4081691518        2.1868010772       -4.2812026771
 O        -7.9653713647        3.2713572716       -3.7667942126
 C        -8.6520614794        0.9315082783       -3.3824994613
 C        -7.8133593280        1.0722350128       -2.1324107818
 O        -6.7150507003        1.4313464698       -2.2220467770
 C        -8.3280952791        0.4555075630       -0.7432845308
 C        -9.6593022737        0.8296728302       -0.1109306584
 C       -10.1637354666        2.3252715515       -0.3649325594
 O        -9.8077874485        2.8279435836       -1.4478163954
 C       -10.9176623592        3.0688972593        0.7665280267
 C       -10.0057196352        3.5251773239        1.9466349802
 O        -9.2287561207        4.3672897496        1.6902509857
 C       -10.3245526721        3.1543504460        3.4660801604
 C       -11.5488821285        3.8136572260        3.9746127622
 C       -11.4819823732        3.7501964374        5.5973554478
 O       -10.5185425289        3.4676634721        6.1724125015
 C       -12.6767840117        4.2231203813        6.4776336718
 C       -14.0720507364        4.4671688734        5.6436844244
 O       -14.0826112927        4.1673666081        4.4710588507
 C       -15.2692522961        4.9430994147        6.5362163638
 C       -16.4677794419        4.1026650688        6.0073064468
 C       -17.3807775568        4.8511400371        5.0579074742
 O       -17.1325279721        5.9372493967        4.5577577657
 C       -18.7329174154        4.1622830117        4.6529662051
 C       -18.2286352372        3.3130857899        3.3468398748
 O       -18.4558387251        2.1117926394        3.1660680766
 C       -17.9490170546        4.2646184755        2.1537411561
 C       -19.5836018719        3.2594691850        5.7058879227
 C       -19.7580873320        5.1783335634        4.0723343630
 C       -13.0242596978        3.1532830683        7.6287129667
 C       -12.2615173144        5.5101457119        7.2592682741
 C       -11.5228027730        4.3663643731        0.0696488093
 C       -12.0141933726        2.1408739499        1.2351909491
 C       -10.1916098263        0.6381591060       -3.2465301309
 C        -7.8858591702       -0.2528110804       -4.2172676161
 C        -5.6348225666        4.6975493666       -8.6735467229
 C        -4.0858176899        3.0216597174       -7.3212455314
 C        -3.0102070066        5.2733655365       -0.8563460578
 C        -3.8385467040        2.8241510559       -1.4546985804
 H        -5.0637119854        3.6416198220        2.2345789802
 H        -3.5130247076        4.0206581053        1.4651045919
 H        -4.5633393915        2.5475461468        1.1010833805
 H        -3.2599253104        5.2597460032       -3.2168215376
 H        -4.5375035213        6.3531046919       -3.9368584367
 H        -4.7895126143        3.4535844242       -4.5338005788
 H        -3.4672818526        4.0889374218       -5.2592779348
 H        -8.4899493073        3.6459817581       -7.5126189950
 H        -8.1355946488        4.4051503545       -5.7867717584
 H        -8.9188240145        1.4370195769       -6.3694794657
 H        -9.8850336945        2.5863036490       -5.5926915511
 H        -7.4976424671        0.6205130582       -0.0552443178
 H        -8.3303877275       -0.6108729514       -0.8678936531
 H        -9.4314327597        0.7098127693        1.0055512664
 H       -10.3949448405        0.0265127779       -0.3466276803
 H        -9.4094364880        3.4956262170        4.1230006341
 H       -10.4490737839        2.1651282479        3.7443655648
 H       -12.4791174947        3.3648410827        3.5474789748
 H       -11.5676244388        4.8149771818        3.6012546941
 H       -15.3842802869        6.0061437154        6.3265609210
 H       -15.1390012238        4.7929269630        7.6006898763
 H       -16.9961756731        3.6248785676        6.8313464829
 H       -16.1842865187        3.2567609419        5.3599820114
 H       -17.6701040582        5.2634210527        2.4708011732
 H       -18.8022357725        4.0795897934        1.4290163848
 H       -17.1125966060        3.8473720982        1.5275137044
 H       -20.4460127527        2.8201130798        5.2521343968
 H       -20.0360078527        3.8107086975        6.6391096051
 H       -19.0680289903        2.3755615959        6.1896713112
 H       -20.5672307239        4.7184151805        3.5393785736
 H       -19.2119787040        5.8112528466        3.4708621369
 H       -20.1402130603        5.8341186616        4.8518032332
 H       -13.7334087725        3.6427222425        8.2815306489
 H       -12.1926740274        3.1304471403        8.3050677390
 H       -13.1334305951        2.0854704427        7.3074132591
 H       -12.9808614312        5.8597975745        7.9126810022
 H       -12.0330041458        6.3148796932        6.5031603934
 H       -11.5489783207        5.2863431014        7.9743995490
 H       -10.7882458935        5.1192502242       -0.0973247729
 H       -12.0738149295        4.8654124798        0.8780632485
 H       -12.1699472054        4.1402883707       -0.8502152703
 H       -12.5245611831        2.5021139991        2.0961804059
 H       -11.6998026876        1.1736919639        1.3699930668
 H       -12.8900907436        2.0149786890        0.6057483377
 H       -10.3706044521       -0.3802482864       -3.0828334502
 H       -10.5479769629        0.9348171576       -4.2134238082
 H       -10.6371547776        1.0684175171       -2.3755458130
 H        -8.6329745384       -0.5191130764       -5.0270470940
 H        -7.7742956799       -1.2001730220       -3.7382685807
 H        -7.0441589480        0.0391214638       -4.8910708189
 H        -4.7304056748        4.9659311027       -9.1395604877
 H        -6.3935901734        5.5560270753       -8.6538102220
 H        -6.0990968319        3.9757103007       -9.2106993329
 H        -4.2102732758        2.1296751567       -6.7590552394
 H        -3.1378084877        3.5227613229       -7.0898980065
 H        -3.9624033948        2.7548031313       -8.4151974437
 H        -3.1842376517        6.1399565455       -0.1506183545
 H        -2.4499669353        5.7290333075       -1.6503386490
 H        -2.2886535588        4.5131895859       -0.4036105301
 H        -4.6977943499        2.2336387483       -1.2411995949
 H        -3.1796701465        2.6015443457       -0.7318535894
 H        -3.5418668358        2.7615493247       -2.5384358212
 Na       -8.1163052667        4.5550454332       -1.4079673828
