117

 C        -4.5098971688        3.4141070771        1.2311185178
 C        -5.1310032195        4.2438363776        0.1451149168
 O        -6.2133633773        4.7212616957        0.3221413318
 C        -4.3829401990        4.3036023180       -1.1562441704
 C        -5.1077328457        4.8467636082       -2.4780773188
 O        -6.3301379613        5.0808588274       -2.5693883492
 C        -4.3112065568        5.1548611820       -3.7697425512
 C        -4.5031662971        4.1740625006       -4.8518165606
 C        -5.2646119428        4.7875286728       -6.0221145612
 O        -5.7667430809        5.8743265117       -5.9391306400
 C        -5.4244597284        3.8665772240       -7.3188880756
 C        -6.4848651490        2.9402675085       -6.6047043376
 O        -6.0535591453        2.0683352088       -5.8644830495
 C        -7.9712020736        3.4851967978       -6.4446646621
 C        -8.7930682716        2.4156913695       -5.6812750888
 C        -8.3421605751        2.2617152226       -4.1701603224
 O        -7.7873681609        3.1532487727       -3.5908382392
 C        -8.6230340646        0.8517989812       -3.5001811428
 C        -7.7428152790        0.9480158085       -2.1370871542
 O        -6.6137093193        1.3100096093       -2.2027130931
 C        -8.3073773857        0.4209741758       -0.6440452526
 C        -9.6057983730        0.9543511114       -0.1549521204
 C       -10.0527584866        2.4216487273       -0.3638590314
 O        -9.7807696610        2.9414378052       -1.4799498690
 C       -10.9933354555        3.0063112085        0.6960919358
 C       -10.0882242072        3.5555384412        1.9383749613
 O        -9.2733614005        4.4548910789        1.6579177787
 C       -10.1968528263        3.1558758713        3.3700608590
 C       -11.4527531326        3.9277221737        4.1022269145
 C       -11.4590207030        3.8705310271        5.5860331414
 O       -10.3536264655        3.5054316872        6.0689468780
 C       -12.6973920629        4.3641171341        6.4772863410
 C       -14.0505689996        4.5013902084        5.6862499568
 O       -14.1149846669        4.4030138982        4.4991637716
 C       -15.3011716945        4.9510294228        6.3545580677
 C       -16.6016257287        4.1284109606        6.0385822216
 C       -17.5985366183        4.9087612861        5.0513683023
 O       -17.0771513346        5.8557931503        4.5077943359
 C       -18.8992898318        4.3041490925        4.5860617049
 C       -18.4781308846        3.3435254599        3.4017147362
 O       -18.3823535355        2.2049178322        3.4207312232
 C       -17.7864722612        4.1987433861        2.0810837195
 C       -19.5136959692        3.4141325049        5.5956036279
 C       -19.8610106809        5.3767316750        4.0628684191
 C       -12.9268353704        3.2193360962        7.5715856486
 C       -12.3373003301        5.7531315541        7.2293898275
 C       -11.6468646014        4.3242760241        0.1899742037
 C       -12.0886493904        1.9786052420        1.0913247265
 C       -10.0892082320        0.5566388239       -3.2486789247
 C        -7.9106457963       -0.3140315440       -4.2425332039
 C        -5.6922957321        4.5213462661       -8.5358371861
 C        -4.0796824860        3.0923545433       -7.4063614916
 C        -3.2584458652        5.2611066187       -0.8322713316
 C        -3.8691487250        2.8037832153       -1.4949556153
 H        -4.9739210629        3.5590631320        2.2939844463
 H        -3.5224253472        3.8678670461        1.3072387340
 H        -4.5841184410        2.3502282923        1.1329508850
 H        -3.2750779613        5.2190561484       -3.4465890310
 H        -4.7967313417        6.1372793646       -4.1542062502
 H        -5.2075801905        3.3297919714       -4.4412468623
 H        -3.6070341625        3.7060410517       -5.2850760208
 H        -8.5023244418        3.5531519048       -7.4574362406
 H        -8.1891360214        4.4689062231       -5.7980607309
 H        -8.7654520830        1.5566413865       -6.2313587274
 H        -9.8674904129        2.6267483278       -5.7077931579
 H        -7.5394150470        0.7798249820        0.1046922883
 H        -8.2471846570       -0.6759157772       -0.5943256474
 H        -9.5771707833        0.7239451357        0.9907785059
 H       -10.4059216795        0.3158852977       -0.5783442283
 H        -9.3081661149        3.4008199801        3.8328767512
 H       -10.3646849885        2.1150797390        3.4457051078
 H       -12.4574370307        3.5132851183        3.8442666723
 H       -11.4631754230        4.9172456747        3.6274077359
 H       -15.5271435059        5.9320279745        5.8216091980
 H       -15.2128470395        5.1317830483        7.5130415141
 H       -16.9926518277        3.9683226852        7.0783115601
 H       -16.5912381713        3.0960630625        5.5579409258
 H       -17.6816937965        5.2261370132        2.1601904422
 H       -18.2003744114        3.9051084255        1.1626637495
 H       -16.7877405135        3.6906677919        1.9659889965
 H       -20.3179635949        2.7555636538        5.2291421369
 H       -20.0346332255        4.0922348783        6.3129070632
 H       -18.9488206220        2.7438636836        6.2298224745
 H       -20.6431317087        5.0735936381        3.3684787175
 H       -19.2249717202        6.1068149226        3.5768716220
 H       -20.3335684156        5.8356676932        5.0071829929
 H       -13.2767880426        3.6602719760        8.4739516781
 H       -11.9496421036        2.8700486669        7.8379353366
 H       -13.4088142477        2.3202460711        7.2168582616
 H       -13.1234387999        6.3713909804        7.6025111760
 H       -11.7736684351        6.3416871383        6.4892809250
 H       -11.7812288945        5.5496917832        8.1080297517
 H       -10.9140367391        5.1260930873        0.1406550184
 H       -12.1632358761        4.7074920679        1.1255488901
 H       -12.2567870174        4.2973404429       -0.7533534700
 H       -12.8148064043        2.5229681873        1.6148003955
 H       -11.7821954676        1.1211805178        1.6217259490
 H       -12.6625147235        1.5762537689        0.2992613068
 H       -10.4805095628       -0.4907434219       -2.9370049048
 H       -10.4317418458        0.8038805447       -4.1693950800
 H       -10.4182504506        1.1358772027       -2.4132725935
 H        -8.5426605471       -0.9255369446       -4.9338135472
 H        -7.7063602391       -1.1334972155       -3.5273434968
 H        -7.1102934189       -0.0193442723       -4.9041329484
 H        -4.9252726029        5.2584382870       -8.7994199297
 H        -6.6234667033        5.0340147754       -8.3957567257
 H        -5.8577131148        3.7778514409       -9.3884248177
 H        -4.0259394665        2.4061001805       -6.6263987354
 H        -3.2012603919        3.6568002455       -7.5152277775
 H        -4.1984326915        2.4569346825       -8.3070541923
 H        -3.7689560089        6.1248635862       -0.5288931364
 H        -2.5344215552        5.5955215747       -1.6258812218
 H        -2.6366850133        4.9366973366       -0.0849188153
 H        -4.5911310437        2.0521004569       -1.3527743946
 H        -3.0790868555        2.6687643397       -0.7169832804
 H        -3.5499673123        2.9075128500       -2.4795183065
 Na       -8.1260907853        4.6010856196       -1.3062619132
