117

 C        -4.5612345775        3.2385295421        1.3975696015
 C        -5.2864592765        4.0588378348        0.1549963457
 O        -6.2672749099        4.6342604631        0.4387758618
 C        -4.3875105244        4.2142511848       -1.2000886712
 C        -5.2080289852        4.8629903753       -2.4536980397
 O        -6.3587457004        5.2012850488       -2.4979824385
 C        -4.2765932913        5.1848935759       -3.7214213600
 C        -4.5295050716        4.1464135115       -4.6941310628
 C        -5.1900563910        4.7257468907       -5.9691352617
 O        -5.8415091276        5.7283397313       -6.0594263429
 C        -5.4150918745        3.7067574979       -7.2997128450
 C        -6.4353997771        2.8029723881       -6.5591355073
 O        -6.1180975294        1.8153627749       -5.8656256602
 C        -7.8255340686        3.3098748130       -6.4923324604
 C        -8.7319187502        2.4781877435       -5.5579058934
 C        -8.2131863782        2.2353208107       -4.0935622338
 O        -7.7604557020        3.1254996074       -3.4584463864
 C        -8.5263368480        0.7801765564       -3.4837609972
 C        -7.7372476261        0.8535186215       -2.0744023501
 O        -6.4910244797        1.1712626018       -2.0829676664
 C        -8.2341335461        0.4969096167       -0.7138006666
 C        -9.5924906442        0.9792271329       -0.1452377778
 C       -10.0467402199        2.4485590553       -0.3739613289
 O        -9.7136716890        3.1586902641       -1.2656210192
 C       -11.0654594020        3.0623185705        0.7534231054
 C       -10.0574892687        3.6383539017        1.8939376744
 O        -9.2447952773        4.4788068897        1.4959535345
 C       -10.2714264524        3.1777526065        3.3034684388
 C       -11.4443493269        4.0207448680        3.9825361449
 C       -11.3176519046        3.9947079755        5.5571329634
 O       -10.3480873277        3.5694015613        6.2301097522
 C       -12.5989816177        4.4406814868        6.4209480110
 C       -14.0502332733        4.6199420378        5.6251254401
 O       -14.0328399385        4.4989429203        4.4033324154
 C       -15.4948526062        5.0663653909        6.4497907301
 C       -16.7055501772        4.2237466939        6.1149292049
 C       -17.5322294386        4.9111658467        4.9274686356
 O       -17.1100377284        5.9413600243        4.4626320189
 C       -18.9751751105        4.4332120125        4.4913841700
 C       -18.4175931248        3.4678321841        3.3105693004
 O       -18.3802192729        2.2951984071        3.6333825389
 C       -17.6781559719        3.9788676544        2.1233501564
 C       -19.5965799376        3.4639430983        5.5732416716
 C       -19.9368134046        5.6204264029        4.1034313906
 C       -12.7886934579        3.3427832183        7.4870573097
 C       -12.3893278140        5.7705949042        7.0394049051
 C       -11.8181613125        4.2707884748        0.1899993847
 C       -12.0842005684        1.9289137347        0.9997317315
 C       -10.0436795377        0.4739615259       -3.3808809857
 C        -7.9176289629       -0.3427630929       -4.3057367417
 C        -5.9455559110        4.4979555612       -8.5195639291
 C        -4.0441107599        2.9592072705       -7.6701930307
 C        -3.3441243966        5.3187782584       -0.8982378090
 C        -3.7626333347        2.8642679544       -1.6972668364
 H        -4.8815900553        3.4261090168        2.3598391212
 H        -3.4689167134        3.5411881843        1.3408064699
 H        -4.7801073380        2.1449426843        1.3088134929
 H        -3.1477251480        5.1422580473       -3.3355931978
 H        -4.6129457196        6.1216064888       -4.1126610224
 H        -5.3353970583        3.3283970497       -4.3343625331
 H        -3.6025445168        3.5399936090       -5.0689504770
 H        -8.3170821660        3.4429411484       -7.4250867129
 H        -7.8618615300        4.2089132366       -5.9533975879
 H        -8.8628536379        1.4337182681       -6.0411175804
 H        -9.7616889329        2.8171173745       -5.6854287090
 H        -7.4492128915        0.7412212200        0.0382292220
 H        -8.1551010719       -0.6302394951       -0.8680730669
 H        -9.6429444517        0.7065184793        0.8858151839
 H       -10.3565661945        0.3771952529       -0.6884960728
 H        -9.4132369885        3.3390052514        3.8885107716
 H       -10.5958102623        2.0984936076        3.2321695262
 H       -12.4570646367        3.7662358695        3.7739980613
 H       -11.2479622928        4.9898241249        3.4503414651
 H       -15.8530480590        6.1408694361        6.2091716410
 H       -15.1393948580        4.9420512597        7.5248408459
 H       -17.3118064787        4.1873197118        7.0682553272
 H       -16.5599415006        3.1351905107        5.8704935411
 H       -17.9871156767        5.0601057795        2.1323766961
 H       -18.0719808706        3.5513100304        1.2620710370
 H       -16.6716004236        3.7782817100        2.0841449935
 H       -20.4197126087        2.7343736124        5.3576906673
 H       -19.9738494294        4.0814048913        6.2851602144
 H       -18.9500540852        2.8205544627        6.1048354866
 H       -20.7405057362        5.2686848801        3.3525153903
 H       -19.4633229972        6.6101972367        3.6593460712
 H       -20.4767349248        5.7571991923        5.0374209095
 H       -13.0330455205        3.6896262386        8.4674662320
 H       -11.9380820305        2.6601967092        7.5729154389
 H       -13.5113040360        2.7060447549        7.1047342296
 H       -13.3211505472        6.3835172927        7.2496117153
 H       -11.8076795931        6.3370478450        6.3760887922
 H       -11.8609577178        5.7438023606        8.0707368490
 H       -11.1388823563        5.1322770019       -0.1022524279
 H       -12.4280663857        4.7547783178        0.9868291674
 H       -12.3033117811        3.9367241341       -0.7076698340
 H       -13.0853309417        2.2969572342        1.1389874853
 H       -11.8469034954        1.1953735153        1.8175395389
 H       -12.1893859123        1.2864767119        0.1613891128
 H       -10.3030121061       -0.3698297870       -2.6900037793
 H       -10.2172905737        0.2188979154       -4.4821974285
 H       -10.6000656035        1.2719575586       -2.8548166176
 H        -8.4986376224       -0.8217507843       -5.0669026613
 H        -7.7804952292       -1.2864766867       -3.7219648872
 H        -7.0612615235        0.0308928932       -4.8175906812
 H        -5.4136304788        5.5022577464       -8.5493956486
 H        -6.9509188023        4.8024394641       -8.3611737829
 H        -5.8653717180        3.9919714800       -9.5567135268
 H        -3.4787468315        2.3917095677       -6.8845779901
 H        -3.3743816573        3.6752574465       -8.0979352814
 H        -4.2638679955        2.2481876442       -8.3832027691
 H        -3.8551716835        6.2217549659       -1.0394025929
 H        -2.4728907234        5.3080770896       -1.5157162886
 H        -2.9117635167        5.3213418713        0.0696444358
 H        -4.5423777674        2.0762761260       -1.7829042520
 H        -3.1312539084        2.6247300850       -0.8007641536
 H        -3.2981066364        3.0433102790       -2.6209871809
 Na       -8.1021176048        4.5856705442       -1.1493529769
