117

 C        -4.3522990325        2.4972725008        0.9744812445
 C        -5.1473391245        3.5512989226        0.1601886808
 O        -6.2160250414        4.0217298901        0.5909333481
 C        -4.3190696354        4.1967960433       -1.0781353546
 C        -5.2237825501        4.9847820105       -2.1423014266
 O        -6.2079359244        5.6508183338       -1.7979943922
 C        -4.5190472246        5.2574740339       -3.6522558095
 C        -4.6055712447        4.0690779885       -4.6348352695
 C        -5.2203068519        4.5242079827       -6.1146465943
 O        -5.3600011868        5.6808183010       -6.3908274658
 C        -5.4762245602        3.3429142943       -7.1305837497
 C        -6.6360996988        2.2672043200       -6.7818041259
 O        -6.3127433596        1.0902851436       -6.7131862708
 C        -8.0284186593        2.7901517304       -6.5945464249
 C        -8.8355159438        2.0960926103       -5.4024889962
 C        -8.2280446480        2.1049804458       -3.9565440836
 O        -7.7418669882        3.1139667662       -3.4727590964
 C        -8.2729715884        0.6782850587       -3.1614509951
 C        -7.7082611026        0.6507963269       -1.7362967115
 O        -6.4082412623        0.8001251597       -1.6499475208
 C        -8.3451728295        0.4676717664       -0.3147760010
 C        -9.8737908929        0.7102642621       -0.1702879272
 C       -10.2684056213        2.1748156446       -0.3612473455
 O        -9.7606621317        2.7187304438       -1.2771090280
 C       -11.1635855638        2.9799823485        0.7221088734
 C       -10.1112093774        3.8207521644        1.6447719663
 O        -9.1965286391        4.4868286086        1.1981074216
 C       -10.3928806520        3.8209281965        3.1062772016
 C       -11.5858031030        4.6641468180        3.6968797478
 C       -11.5895518996        4.3581997316        5.1320958960
 O       -10.6959788086        3.6996284345        5.6478736498
 C       -12.7213329619        4.8639924536        6.2381997857
 C       -14.1292825635        4.8310006342        5.5360323263
 O       -14.3761610878        4.5456012646        4.3380441214
 C       -15.3736813976        5.2937035798        6.3631652065
 C       -16.6250221346        4.5529514609        6.1131284901
 C       -17.4189412186        5.3700052503        5.0130407073
 O       -17.0362730434        6.4674487483        4.6643379939
 C       -18.7599754694        4.7514698541        4.3959253536
 C       -18.4068142327        3.5376511975        3.4903704110
 O       -18.3565719078        2.3356039387        3.9005997568
 C       -17.8008335049        3.8139054502        2.0379437874
 C       -19.4995637921        4.3695458642        5.7037527641
 C       -19.5711565150        5.7429428817        3.6324922620
 C       -12.6638220886        3.7913844215        7.3964222992
 C       -12.3978149764        6.3581294869        6.6197395121
 C       -11.9946858166        4.0222698103       -0.1113835423
 C       -12.1302595568        2.0272366246        1.5320323638
 C        -9.6798712425        0.0505063931       -3.2572348195
 C        -7.3346128911       -0.3068846704       -4.1479020686
 C        -6.2340941952        4.0895183785       -8.3306787010
 C        -4.1744754192        2.7203550188       -7.5288715230
 C        -3.3069409477        5.2929617851       -0.3804671055
 C        -3.4273085922        3.1390483499       -1.8935361292
 H        -4.7658821972        2.3324729912        1.9357407392
 H        -3.2602140800        2.7779867826        1.0419899854
 H        -4.5376199507        1.4945827460        0.3880959309
 H        -3.4396714159        5.6594266621       -3.3678027822
 H        -5.1873828200        6.0269680937       -4.0704391881
 H        -5.3143249922        3.2620052906       -4.1823498108
 H        -3.4545375117        3.7278955935       -4.7380404494
 H        -8.7472194439        2.6861540029       -7.4605507432
 H        -7.9435776637        3.8295742138       -6.4045547830
 H        -8.7167203181        0.9988323468       -5.7673206366
 H        -9.8909074803        2.2824440423       -5.3556818663
 H        -7.8841717133        1.2355160247        0.3175224022
 H        -8.1154917708       -0.5555957041        0.0826900876
 H       -10.1004535945        0.1638772085        0.7570134733
 H       -10.3502770916        0.0162495120       -0.9548349499
 H        -9.4254237829        4.2342089142        3.4095689416
 H       -10.5860030513        2.8881426297        3.5175520938
 H       -12.5501904950        4.4537525802        3.3114410866
 H       -11.5096755220        5.7919527066        3.6323676845
 H       -15.4800153627        6.4027788390        5.9380704139
 H       -15.0883530154        5.3909824802        7.4424930615
 H       -17.2864919413        4.2391369006        7.0029189239
 H       -16.2518686185        3.5284027842        5.8519340747
 H       -18.6370123434        3.3776478951        1.4647489924
 H       -17.0488005887        3.1259052696        1.7130724943
 H       -17.4841220202        4.7582294495        1.7587573093
 H       -20.5574042328        4.0531175160        5.7738435685
 H       -19.4666898592        5.1473806146        6.4611235741
 H       -19.0140185474        3.4542778167        6.1381944838
 H       -20.4357721462        5.1368248746        3.1810714386
 H       -19.0137526316        6.0831592339        2.6929235467
 H       -20.0300111024        6.5620692705        4.0981630723
 H       -13.2754050884        4.1276723347        8.2263406108
 H       -11.6104898110        3.7172322449        7.7317920505
 H       -13.0532324505        2.8337934171        7.1358842153
 H       -12.9687015874        6.6422143460        7.4916240994
 H       -12.6845279392        7.0654996032        5.8950671811
 H       -11.3340619913        6.5634029555        6.6246839638
 H       -11.2808124216        4.6308038911       -0.7807723540
 H       -12.5119778660        4.6255373529        0.6494681286
 H       -12.6429296671        3.5253949179       -0.8233475737
 H       -12.5015111106        2.3057591519        2.4821235880
 H       -11.5647306322        1.1388901129        1.7278454305
 H       -12.8786535190        1.7595297596        0.8505323969
 H        -9.6820499288       -0.8596106340       -2.7132798311
 H       -10.0025405853       -0.1726648470       -4.3911335665
 H       -10.5865423506        0.6809862071       -2.8271516751
 H        -6.7792035935        0.0277997616       -5.0110853973
 H        -7.9379526405       -1.0702560931       -4.7108660685
 H        -6.5898910247       -0.8137880347       -3.4929269572
 H        -5.5586211885        4.1465800375       -9.2030319572
 H        -6.3957712140        5.1755064311       -8.0280053523
 H        -7.0835042495        3.5497340098       -8.6863738025
 H        -3.8027960716        2.0180856252       -6.7502836881
 H        -3.3900570017        3.3947774816       -7.7636957637
 H        -4.3963422488        2.1244096786       -8.3338237526
 H        -3.4816056266        6.1813243003       -0.9538165516
 H        -2.3236304747        5.0985620474       -0.5155122718
 H        -3.3671929421        5.6459896500        0.6671497596
 H        -4.0048938214        2.2865756317       -2.2627833772
 H        -2.5802909929        2.9258842178       -1.3123196005
 H        -2.9555968328        3.6605990170       -2.7488862917
 Na       -8.2036578378        4.8667703985       -0.8062201886
