117

 C        -4.3111378476        2.2205000287        0.6887734425
 C        -5.0175857411        3.3983237351       -0.0268776896
 O        -6.1366123566        3.6845796341        0.2013366103
 C        -4.1541805063        4.1297133168       -1.1380692043
 C        -5.1248461069        4.9468444100       -2.0692567917
 O        -6.1455343375        5.4658829952       -1.6615666144
 C        -4.8110107643        5.2209204739       -3.6283199413
 C        -5.2516752061        4.0233254653       -4.5583142111
 C        -5.3624569894        4.4850115279       -5.9807752171
 O        -5.1785772018        5.6713951582       -6.2931161232
 C        -5.5737028975        3.4049604119       -7.1691218908
 C        -6.7129519477        2.3490572461       -6.7701948176
 O        -6.5271984573        1.1840549950       -6.9489962061
 C        -8.0887212062        2.8599885998       -6.1360137723
 C        -8.7330800511        1.7369275986       -5.3216646889
 C        -8.2859320692        1.7928268070       -3.8398954744
 O        -7.7961795684        2.8009946146       -3.4443112047
 C        -8.1797898848        0.4299655590       -3.0298994190
 C        -7.6335128694        0.7253068525       -1.5889775122
 O        -6.5455393105        1.0416551133       -1.4942003196
 C        -8.4031886005        0.2307995619       -0.3035557351
 C        -9.8935854007        0.7579797695        0.1281276479
 C       -10.2407060856        2.1373893462       -0.2740190576
 O        -9.7572771135        2.6602946029       -1.3229016170
 C       -11.1434521166        2.9721626557        0.6823733856
 C       -10.1602601227        3.9473764128        1.4462168073
 O        -9.4210951716        4.7195370888        0.8367044970
 C       -10.3126999910        4.0871964093        2.9598800090
 C       -11.5247100427        4.8560578256        3.5537084667
 C       -11.6572607868        4.4642716059        5.1513563586
 O       -10.9290375294        3.5255417486        5.5339528731
 C       -12.6395944824        5.1723703623        6.1513378135
 C       -14.1550998212        4.8837580738        5.5255660298
 O       -14.3155836914        4.2861056759        4.4898053755
 C       -15.2544611163        5.3940538829        6.3491635233
 C       -16.6288448449        4.7698477889        5.9427284468
 C       -17.4605121649        5.6655229642        5.0152002440
 O       -17.1006607381        6.7642714741        4.6057375685
 C       -18.6842739591        4.9270211768        4.3417751457
 C       -18.3412314330        3.5283836646        3.6076553374
 O       -18.3702897871        2.5506824259        4.2332224840
 C       -17.9327815785        3.6137066492        2.1909721075
 C       -19.7454757122        4.3737509338        5.3831997456
 C       -19.3865835645        6.0178385172        3.4990677385
 C       -12.5790639207        4.3153712120        7.4224433257
 C       -12.3973636788        6.7179651370        6.5085590844
 C       -11.9804455557        4.0099931055       -0.1876315297
 C       -12.0695149680        2.0523847344        1.4911025405
 C        -9.5541022319       -0.1908878529       -3.1134179223
 C        -7.0540777833       -0.3786777550       -3.6615515523
 C        -5.8347254627        4.0461786458       -8.5784394704
 C        -4.1416538421        2.5527759814       -7.1746183235
 C        -3.3873336350        5.3454864094       -0.4508462801
 C        -3.2452010351        3.0395283058       -1.8114739046
 H        -4.9480450704        1.7699209473        1.4509398210
 H        -3.4369663146        2.6848473648        1.1412549955
 H        -3.9911755514        1.5091816243       -0.0099441202
 H        -3.7919250902        5.4925961835       -3.6891549418
 H        -5.4016395008        6.0899998041       -3.8644454454
 H        -6.2096513501        3.7839685466       -4.1793573549
 H        -4.5883615440        3.2785403496       -4.4826973579
 H        -8.7939030895        3.2081195981       -6.8687031520
 H        -8.0740494540        3.6869812865       -5.4033106735
 H        -8.6814602026        0.8426982910       -5.8826195911
 H        -9.8498062175        1.9665778566       -5.1145757980
 H        -7.7381059365        0.2854268188        0.6010290603
 H        -8.5592887266       -0.8145852563       -0.5573219023
 H        -9.9192026382        0.4945063567        1.1688419971
 H       -10.6670218931        0.2186005080       -0.3048386164
 H        -9.3892387536        4.5848774324        3.3082261904
 H       -10.4018295669        2.9556041981        3.3288940667
 H       -12.4836158933        4.5529911646        3.0199976578
 H       -11.3862137439        5.9117353893        3.4114467659
 H       -15.3473320467        6.4115610993        6.1604228141
 H       -14.9807524573        5.3195946286        7.4146948702
 H       -17.1645846747        4.6313319366        6.8503668446
 H       -16.5604961463        3.7500366813        5.6157033083
 H       -17.6745363071        2.6822766487        1.6341459015
 H       -16.9689359790        4.0882878188        2.3004852709
 H       -18.4011994818        4.4773240250        1.7246804382
 H       -20.5069709191        3.7592322472        4.8669999825
 H       -20.3380518985        5.1224976557        5.8265451721
 H       -19.3831095248        3.8416008797        6.1978253686
 H       -20.3419463335        5.9576783841        3.0015420691
 H       -18.6027932294        6.3746648528        2.7995169149
 H       -19.4528801325        6.9048737580        4.1976222087
 H       -13.3302020007        4.4947192041        8.1722867112
 H       -11.6432517853        4.5027935429        7.9076698487
 H       -12.7476497853        3.2785742653        7.1561458341
 H       -13.2959171469        7.0476700658        7.0572898549
 H       -12.1717145467        7.5101004267        5.7855265758
 H       -11.4291747408        6.7462566901        7.0128497646
 H       -11.2748292941        4.4871191184       -0.8463699657
 H       -12.6792688446        4.6418930636        0.4038344928
 H       -12.6092689496        3.3555073356       -0.8496648840
 H       -12.9835162159        2.6236089901        1.6866732726
 H       -11.6900043788        1.9222801642        2.5280081256
 H       -12.2813476079        1.1325520836        0.9064218154
 H        -9.7616461084       -0.9238604136       -2.2425031360
 H        -9.7257460780       -0.7675916057       -3.9844932095
 H       -10.2865407984        0.5413027657       -3.1845813594
 H        -6.1212269251        0.2214304702       -3.7768155377
 H        -7.2215909824       -0.5650124586       -4.7224224013
 H        -6.8307023993       -1.3174106847       -3.1749595620
 H        -5.0707919366        3.6766630949       -9.3053365324
 H        -5.8916255031        5.0873583168       -8.6373307795
 H        -6.7852335650        3.5085378137       -8.9357430294
 H        -3.9739450803        1.9734958421       -6.2803472170
 H        -3.2536875499        3.1896379946       -7.3287406831
 H        -4.1890202695        1.8306465370       -8.0224865511
 H        -3.0316376459        6.1827616398       -1.0534143194
 H        -2.4388875802        5.0079281982        0.1060558139
 H        -4.0320333741        5.8324571165        0.2132347001
 H        -3.8316942056        2.3266745629       -2.4013570098
 H        -2.3905702426        2.6391698436       -1.1532444416
 H        -2.6497802744        3.6171010062       -2.4969531558
 Na       -8.1313535551        4.5795443431       -1.0149257894
