117

 C        -4.3750378371        2.1408580248        0.6290115001
 C        -5.0285130562        3.3298565643       -0.1376333272
 O        -6.2063154237        3.4533473758        0.0688975510
 C        -4.1792058491        4.1547404924       -1.2177785250
 C        -5.1224401191        4.8601331666       -2.1904942480
 O        -6.1247381121        5.3881469327       -1.6764786151
 C        -4.9095030106        5.0597058054       -3.7084443078
 C        -5.4914678888        3.9701678306       -4.5031611919
 C        -5.3615044344        4.4903319099       -6.0017276553
 O        -5.1742598557        5.6364622468       -6.2897930097
 C        -5.5702038075        3.3832981142       -7.1051327244
 C        -6.7597545528        2.4095664647       -6.7111379446
 O        -6.5680921013        1.2273188938       -7.0048750755
 C        -7.9896587649        2.9106443547       -6.0721488029
 C        -8.7026958463        1.6901539896       -5.2592427961
 C        -8.2057621095        1.7287566408       -3.7917127726
 O        -7.8874750333        2.7676542094       -3.2325288426
 C        -8.1131580701        0.4077726773       -2.9929053528
 C        -7.6496848395        0.7130648166       -1.5554033337
 O        -6.6249284247        1.3159126205       -1.3137981414
 C        -8.4321373393        0.0708135620       -0.2758256380
 C        -9.7751977384        0.7112933118        0.0848015313
 C       -10.1205066445        2.2204493695       -0.2650042375
 O        -9.6683814814        2.7030618692       -1.2656512774
 C       -11.2069338602        3.0784627387        0.5794947582
 C       -10.2672986337        4.1628411474        1.3717616393
 O        -9.4461342286        4.8279450987        0.7699548236
 C       -10.2171318691        4.1985618922        2.9833218308
 C       -11.4348610120        4.9113856274        3.6596454074
 C       -11.5770350718        4.5523689039        5.0904194867
 O       -11.0138346662        3.5137358331        5.5378054945
 C       -12.6055196521        5.1809665444        6.0863484202
 C       -14.1718896345        4.9341254899        5.5519490513
 O       -14.1975666146        4.2039727877        4.5413765353
 C       -15.3777983043        5.5521727980        6.3215135926
 C       -16.7508570281        4.8009888282        5.9910171010
 C       -17.4911631056        5.5934581330        4.9338609284
 O       -17.1418997773        6.7380763788        4.6740246662
 C       -18.8127178353        5.0512907213        4.3096328080
 C       -18.3222260335        3.6853810591        3.7444682068
 O       -18.3022834573        2.6512684717        4.3457911202
 C       -17.8516981347        3.6811407107        2.1884949246
 C       -19.8186611429        4.5974456989        5.3886934586
 C       -19.3582512178        6.0418368069        3.2487816952
 C       -12.5296580041        4.5116286376        7.5141765440
 C       -12.3270423958        6.6559242574        6.2431744028
 C       -12.0891027258        3.9037214230       -0.3634690494
 C       -12.0682175576        2.1613680196        1.5052649280
 C        -9.5537254184       -0.4035597312       -3.0126723423
 C        -6.9742600149       -0.5743205466       -3.5196388997
 C        -5.6668529481        4.0355183952       -8.4384172542
 C        -4.3063918180        2.5011582033       -6.9905326207
 C        -3.3284180377        5.2734403124       -0.3871471377
 C        -3.1971794510        3.2596482551       -1.9643958177
 H        -5.0396465452        1.9649931727        1.3655730864
 H        -3.4657405595        2.5539803749        1.1243190731
 H        -4.0751764127        1.2662889384        0.0155222296
 H        -3.7616878558        5.2208195378       -3.8051051993
 H        -5.3295301363        5.9455523702       -3.9879363552
 H        -6.4427817880        3.9874452238       -4.0998262647
 H        -4.9639226993        3.0686510121       -4.3087593810
 H        -8.7349944710        3.2933952787       -6.9376339011
 H        -8.0107536646        3.7669147549       -5.3642120406
 H        -8.4304539086        0.8073247921       -5.8046194545
 H        -9.7515793415        1.6900722741       -5.1762092437
 H        -7.8413471980        0.2152766022        0.6136623136
 H        -8.6054966181       -0.9819695463       -0.3903578204
 H        -9.6816794587        0.4523208023        1.1552897170
 H       -10.6641868390        0.1552321694       -0.2437945196
 H        -9.3317301038        4.6767688346        3.2983584548
 H       -10.1604061776        3.1118906218        3.1886965781
 H       -12.4042975560        4.5743714525        3.2424165278
 H       -11.3463679525        6.0320550366        3.5344670381
 H       -15.5562424938        6.5398721777        6.0706694534
 H       -15.1076958866        5.5404009530        7.3504585313
 H       -17.3207854994        4.7752174042        6.9373705563
 H       -16.6846453012        3.7457807138        5.7577427524
 H       -17.3159027971        2.6807010313        1.9336291476
 H       -17.1867582098        4.4550823713        1.7575134858
 H       -18.7659396884        3.9516620985        1.6374636151
 H       -20.6394144173        3.9377368753        4.9548877040
 H       -20.3295386017        5.2767409219        5.9998429887
 H       -19.2539560602        4.0247930249        6.1400025560
 H       -20.2469283148        5.7967575069        2.7063190491
 H       -18.5692908298        6.3669316541        2.5816682456
 H       -19.6067928491        6.8799838366        3.7345815575
 H       -13.2293433988        4.9366326917        8.2619935798
 H       -11.5205037347        4.7105706511        7.9711648133
 H       -12.8359967726        3.4954452115        7.4839622073
 H       -13.1995173874        7.2701866197        6.5449058696
 H       -12.0347704940        7.1253379289        5.3700232755
 H       -11.3408563421        6.7935563148        6.7355200129
 H       -11.4477799896        4.4874691757       -1.0546525299
 H       -12.7291445905        4.4787966331        0.3080427905
 H       -12.8148243987        3.3165984127       -0.8785953011
 H       -13.0791166297        2.6021704180        1.6067538438
 H       -11.7234088045        2.1704607925        2.5915987534
 H       -12.1110328934        1.1974409448        0.9987360783
 H        -9.6033103374       -1.2853470655       -2.5448002380
 H        -9.6670520959       -0.6874825204       -4.0823604246
 H       -10.3938802637        0.1999244907       -2.9509834766
 H        -5.9645233381       -0.3509736911       -3.2368185014
 H        -6.8443175338       -0.5602156005       -4.6393464365
 H        -7.2397784753       -1.5795698749       -3.2954143956
 H        -4.9567844194        3.7847187822       -9.1963934355
 H        -5.7012072590        5.0808204761       -8.3170825459
 H        -6.6478895345        3.7067839365       -8.7785176833
 H        -4.1013448297        2.1757751285       -5.8899842522
 H        -3.4271939192        3.1264681150       -7.2829123750
 H        -4.3277452485        1.6455904478       -7.6097284145
 H        -2.4661774174        5.8450933648       -0.8825616978
 H        -2.8389253132        4.9011587320        0.5153623970
 H        -4.0123070598        6.1507515644       -0.1474307936
 H        -3.7164801900        2.4271292445       -2.4843774772
 H        -2.4006287757        2.9298456711       -1.2550124855
 H        -2.6416452206        3.7948404457       -2.6940034584
 Na       -8.0176173830        4.2326247321       -1.1662124889
