117

 C        -4.2546746343        2.1329185685        0.5588203787
 C        -5.0096795554        3.1826656272       -0.2293319561
 O        -6.2348013279        3.3678026757       -0.0550615931
 C        -4.2161583066        4.0811015831       -1.2130360351
 C        -5.1530748899        4.9419597052       -2.1087739957
 O        -6.2257256449        5.4354077934       -1.7649753036
 C        -4.8020658638        5.0379734013       -3.5834456383
 C        -5.5986646996        4.0948006783       -4.4908679678
 C        -5.4694438270        4.4632104298       -5.9380666989
 O        -5.2013505250        5.5877169857       -6.2263613566
 C        -5.5197367140        3.3205608248       -6.9954824715
 C        -6.7685282319        2.3892666317       -6.7382940011
 O        -6.7175663004        1.1951225733       -7.0326804576
 C        -8.0480407622        2.8648592193       -6.1606161523
 C        -8.6137478110        1.7149093796       -5.1114138870
 C        -8.0983391889        1.6457386116       -3.6993025550
 O        -8.0159227756        2.7494594241       -3.1293595019
 C        -8.0318006651        0.2570297200       -2.9226269967
 C        -7.7727680149        0.6596773616       -1.4285747404
 O        -6.8164945212        1.5090615877       -1.2278717471
 C        -8.4805016405        0.1081988491       -0.1618168187
 C        -9.8343485158        0.7585992445        0.1702486615
 C       -10.1081366687        2.2558646015       -0.2189622869
 O        -9.5964384415        2.6741625674       -1.2118418341
 C       -11.1310610016        3.1378673554        0.5676729472
 C       -10.2621714392        4.1934812443        1.3892615751
 O        -9.5655309771        4.9024571285        0.7180254196
 C       -10.2133790543        4.3697372486        2.9492912932
 C       -11.4360120582        5.0189008336        3.6267267917
 C       -11.6051050855        4.3141745645        5.1262735900
 O       -10.9674766378        3.4606956175        5.5454625413
 C       -12.6613867310        5.2395040138        6.0570681533
 C       -14.0905189007        4.8968205793        5.5728002146
 O       -14.2706244059        4.1915777381        4.6096155569
 C       -15.2693898867        5.5342048605        6.2603320351
 C       -16.7045772644        4.9014789878        6.0679524223
 C       -17.5593907952        5.6950444774        4.9985887710
 O       -17.1938197900        6.7758452754        4.6363742356
 C       -18.8449652036        5.0526907904        4.2942270698
 C       -18.3708202025        3.7711071315        3.6360967508
 O       -18.1430827151        2.7827883825        4.4061661310
 C       -17.8127768522        3.6714839264        2.1552643330
 C       -19.9372659821        4.9586629075        5.3820946866
 C       -19.3507757705        5.9229697348        3.1371605576
 C       -12.5057108682        4.7745573199        7.5246577417
 C       -12.3154986339        6.7492997859        5.9585844618
 C       -12.0553279042        3.7439651524       -0.5385335087
 C       -12.0229031685        2.3140461010        1.5526646963
 C        -9.3683107031       -0.5107711249       -3.0051114566
 C        -7.0280050865       -0.7100856319       -3.4545309429
 C        -5.6189832309        3.9957841878       -8.4293754850
 C        -4.2529913980        2.4348122646       -6.8801723261
 C        -3.4600856119        5.0705450195       -0.3526105394
 C        -3.0478108975        3.4074986561       -2.0666314991
 H        -4.8993861079        1.9416541053        1.4906003409
 H        -3.2675124018        2.4117901499        0.8511442189
 H        -4.1520512223        1.2731240812       -0.1692103198
 H        -3.7173053830        4.8962868912       -3.6857183484
 H        -4.9164895401        6.1469617276       -3.8786787908
 H        -6.6178095005        4.1216284064       -4.0104603944
 H        -5.0242341316        3.0677828859       -4.3825978521
 H        -8.8811235216        2.7932586096       -6.9142786857
 H        -8.2332850256        3.8637851758       -5.7201163537
 H        -8.2206639060        0.8091914935       -5.6199721834
 H        -9.6465968967        1.6402556478       -5.0072751802
 H        -7.8822603907        0.0942539899        0.7059946665
 H        -8.7386007088       -0.9282215208       -0.3879697127
 H        -9.9134905416        0.4285155184        1.2126510560
 H       -10.6427387486        0.0758553017       -0.3652052738
 H        -9.3633242395        5.0079864930        3.2115517130
 H        -9.9463714941        3.4534322648        3.2559912413
 H       -12.3518851380        4.9212389573        3.0981989046
 H       -11.1710202476        6.1188529392        3.7626838760
 H       -15.4483587124        6.5772912958        5.8515476655
 H       -15.0752653800        5.6835892820        7.2849760640
 H       -16.9479636281        4.6581883267        7.1549227143
 H       -16.6700312260        3.8951467359        5.5891761748
 H       -16.9345888495        3.1020717569        2.2008380654
 H       -17.5121038801        4.6283393061        1.6001358408
 H       -18.6157604222        3.3373235214        1.4475615004
 H       -20.9429147877        4.7552361158        5.1280976785
 H       -19.9885794545        5.9734350382        5.9536224961
 H       -19.6180861494        4.3678940637        6.3043479215
 H       -20.1482724931        5.3513077984        2.7194970693
 H       -18.7137383042        6.2646724934        2.4264509457
 H       -19.9382974125        6.8158459076        3.4152920578
 H       -12.9772820914        5.3462299961        8.3445409117
 H       -11.4263665868        4.8591592718        7.7415269595
 H       -12.9432823115        3.7633748919        7.6487146729
 H       -13.0364709683        7.4693101230        6.2027612468
 H       -12.2230670236        6.9753532911        4.8828601214
 H       -11.3200275146        6.9783555039        6.2067226306
 H       -11.4996572538        4.3057471428       -1.2938729951
 H       -12.7360636966        4.2912456047        0.0640945256
 H       -12.7820533463        3.0298166960       -0.8728015691
 H       -12.8999374327        2.9353895193        1.7902770254
 H       -11.6017809217        2.1321441094        2.5192526816
 H       -12.3207782046        1.4424502719        0.9762705138
 H        -9.3256677775       -1.5738438312       -2.8711361130
 H        -9.7482246944       -0.5113589163       -4.0259651556
 H       -10.2332981269        0.0582362328       -2.5862098928
 H        -6.0774876905       -0.6170251700       -2.9878420578
 H        -6.7590199481       -0.5333377308       -4.4883877561
 H        -7.3609445790       -1.7668891477       -3.5101563088
 H        -4.8730167017        3.6869261830       -9.0991441899
 H        -5.4591216430        5.0844920391       -8.1606546625
 H        -6.5428668491        3.8873851315       -8.8460857003
 H        -3.9847095232        2.1393887216       -5.8517841542
 H        -3.3878407837        2.9664667207       -7.2970638472
 H        -4.4091026858        1.5341774166       -7.5003973898
 H        -2.4299507628        5.2018193645       -0.7253575753
 H        -3.2306923503        4.8853557846        0.6658478983
 H        -3.7992298671        6.1668218880       -0.5028026838
 H        -3.5968254509        2.6022661899       -2.5464091800
 H        -2.3857530004        2.9478926881       -1.4382212394
 H        -2.4259527755        3.9332096714       -2.8165833726
 Na       -7.8813856605        3.8886510213       -1.3117485753
