117

 C        -4.0790060758        2.0832400687        0.4421958153
 C        -4.9469954353        3.1061593811       -0.2902390011
 O        -6.0328782500        3.3959073225        0.1233040057
 C        -4.1933906807        4.0884787915       -1.2423649800
 C        -5.1988495069        4.9786286904       -2.1861761935
 O        -6.2023413301        5.4503829608       -1.7811573008
 C        -4.6974121056        5.2026022000       -3.6089888721
 C        -5.6188174310        4.1711410716       -4.3546125348
 C        -5.4087352078        4.4249135863       -5.8536715844
 O        -5.2774511588        5.6202857226       -6.2159767606
 C        -5.5378029003        3.2913685535       -6.9154159113
 C        -6.8078270636        2.2380813171       -6.8063315571
 O        -6.7054310523        1.0945434744       -7.1331910542
 C        -8.1903787723        2.6699178602       -6.1109368401
 C        -8.6671209526        1.5541386740       -5.2221029610
 C        -8.1781058456        1.6398136145       -3.7079534387
 O        -7.9477253177        2.6916617786       -3.2568022790
 C        -8.1161898846        0.1668837803       -2.8710258709
 C        -7.8608602549        0.6016197674       -1.3421404678
 O        -6.9515628123        1.4083091286       -1.2143622268
 C        -8.6010062831        0.0985113636       -0.0939059192
 C       -10.0692532171        0.7254715519        0.3645058304
 C       -10.1542656804        2.1574094710       -0.0554012195
 O        -9.6662167091        2.5427596931       -1.1488153708
 C       -11.1526732093        3.1156415811        0.6644628724
 C       -10.2566335235        4.3429200053        1.2783718393
 O        -9.5482555007        5.0228946982        0.5634908785
 C       -10.2250187254        4.3963660900        2.8246920274
 C       -11.4078813092        4.9542738057        3.6589984082
 C       -11.6100391123        4.4696519093        5.1681165499
 O       -11.0142113828        3.4479058143        5.4602801407
 C       -12.5735501759        5.2269718395        5.9028578043
 C       -14.1121441948        4.8594015351        5.4889806726
 O       -14.3514521000        4.1094763472        4.6065356188
 C       -15.3065322792        5.6652444430        6.2666196142
 C       -16.6293096822        5.0224378611        5.9360360769
 C       -17.4902483191        5.8064014731        4.8416113682
 O       -17.1836506690        6.9648345945        4.6316543874
 C       -18.8363586513        5.1208248141        4.2853800498
 C       -18.2361850359        3.7013387917        3.6971602052
 O       -18.0209885897        2.7479288423        4.4581025546
 C       -17.8608490600        3.6524479091        2.3092032463
 C       -19.9733666080        5.2203084457        5.3323999794
 C       -19.3834669974        6.0192314562        3.0906360965
 C       -12.4004192658        5.0068102270        7.4877215103
 C       -12.4104948980        6.7807391584        5.7167270395
 C       -11.9183761546        3.6719520723       -0.5708094090
 C       -12.0435503974        2.3453705030        1.7054884782
 C        -9.4148679536       -0.4903317492       -3.0347731402
 C        -6.8705342143       -0.6999363745       -3.4090623787
 C        -5.6332839192        3.8654691272       -8.4507901001
 C        -4.2110171747        2.4277201568       -6.8262932018
 C        -3.5254286927        5.1326686701       -0.1639407984
 C        -3.0754443620        3.3078621258       -1.9961375411
 H        -4.5850927945        1.9854447816        1.4802992991
 H        -3.0000910797        2.2742688540        0.5416610758
 H        -4.1270587934        1.2170937126       -0.2183041020
 H        -3.6493789750        5.1404141428       -3.7440510565
 H        -5.0210553842        6.2939613741       -3.9480578233
 H        -6.6625041458        4.6756326179       -4.0728418628
 H        -5.4769055637        3.0746913922       -4.0246059930
 H        -9.0500065051        2.8963910236       -6.5517076739
 H        -8.1489639713        3.4264101988       -5.3521960734
 H        -8.4405882428        0.5884066720       -5.6918966751
 H        -9.8101215737        1.6932867422       -5.1128420450
 H        -7.8831408483        0.3252901941        0.7267441175
 H        -8.6588229404       -0.9981776215       -0.1108730706
 H       -10.2216251122        0.5292062898        1.4332681328
 H       -10.8239780165        0.1056873288       -0.2010080773
 H        -9.3480233627        5.0115104984        3.1266970847
 H        -9.8217468262        3.4040123270        3.0233245564
 H       -12.3318926826        4.5402598044        3.2273179788
 H       -11.3622048416        6.0223513418        3.5992681149
 H       -15.4682146768        6.7764770420        5.9082522391
 H       -15.1763018078        5.7425161610        7.3953958662
 H       -17.0712571435        4.9398467354        6.9594535392
 H       -16.4849983012        3.9240763859        5.6771203134
 H       -16.8123865583        3.5609986448        2.2612504619
 H       -18.0502433730        4.5483756330        1.7675183200
 H       -18.3989273995        2.9423587370        1.6962725446
 H       -20.9549576725        5.2845809599        4.8852336405
 H       -19.8853927036        6.2236409797        5.8783254935
 H       -20.0291671312        4.5985067421        6.2145103236
 H       -20.0776153787        5.3655367185        2.5339271869
 H       -18.6858804878        6.5002252074        2.3822968461
 H       -20.1545326142        6.8591639509        3.2575452248
 H       -12.8181623059        5.8168577599        8.0839410008
 H       -11.3893131287        5.0100070961        7.7972114555
 H       -13.0091525030        4.1242078409        7.8334622639
 H       -12.9216931889        7.3207401572        6.4735721886
 H       -12.9217879613        7.2234172027        4.8011881739
 H       -11.4317586707        7.1625212670        5.5983911062
 H       -11.1250253547        4.1385295550       -1.0846270893
 H       -12.7136079621        4.3325465279       -0.2446716759
 H       -12.5468237583        2.9040190085       -1.0840866645
 H       -12.5323262964        3.0786070944        2.2772840757
 H       -11.5216950039        1.7669117083        2.3986342888
 H       -12.7604893485        1.7650640871        1.1578000635
 H        -9.2679174455       -1.6771006393       -2.7618150738
 H        -9.9400779454       -0.5966781889       -3.9535230463
 H       -10.1912660404        0.0736858381       -2.4565506792
 H        -5.9420024635       -0.4179077699       -2.8453942815
 H        -6.6454592034       -0.5314799084       -4.4390222137
 H        -7.0308361500       -1.7916246640       -3.4972111291
 H        -4.9704380523        3.1895318087       -9.0009811349
 H        -5.0736441974        4.7864024417       -8.3377381867
 H        -6.6410876930        4.0638631637       -8.9282590644
 H        -4.0473900181        2.1363717511       -5.8577193346
 H        -3.3423655340        2.9672250905       -7.1589192971
 H        -4.3059226967        1.4918288680       -7.4579392007
 H        -2.4759904722        5.1094848018       -0.0969060594
 H        -3.6851368851        4.7475179700        0.8643321756
 H        -3.7556778034        6.1147721743       -0.2605276018
 H        -3.5740963176        2.7699042887       -2.8002430814
 H        -2.7116276296        2.4008680248       -1.4362207890
 H        -2.1987970098        3.8567029531       -2.4174946779
 Na       -7.7666578736        3.7734529277       -1.3240188235
