117

 C        -3.9997719364        1.8479988346        0.3598354142
 C        -4.7632147495        3.1450993332       -0.0044469286
 O        -5.8500389068        3.4030444939        0.5765627162
 C        -4.0031490160        4.2435235187       -1.0260756763
 C        -5.0652797727        4.8987555126       -2.0203950704
 O        -6.1233362086        5.4038890821       -1.5273544084
 C        -4.7622122987        5.2181432563       -3.4987773053
 C        -5.5009320673        4.3162097626       -4.4597681604
 C        -5.5609727392        4.4934333021       -5.9955060604
 O        -5.4615651168        5.5020866375       -6.5831810987
 C        -5.5838813585        3.1754506311       -6.7928819966
 C        -6.8265103827        2.0325233760       -6.7472544367
 O        -6.5337510975        0.9591385655       -7.2537198272
 C        -8.1314083124        2.4037605332       -6.2498883496
 C        -8.8166838102        1.1970986743       -5.3096906790
 C        -8.3718626095        1.4190072526       -3.8461493651
 O        -7.7072852765        2.4399450275       -3.4530400057
 C        -8.4385350418        0.2118753607       -2.7561971087
 C        -8.0986433312        0.6178344293       -1.2399403716
 O        -7.0046276433        1.1744680582       -1.0602362706
 C        -8.8679582111       -0.1729640804       -0.0629542002
 C       -10.1257226554        0.4712097270        0.4481069401
 C       -10.2325831461        1.9315036353       -0.0728868505
 O        -9.5592959925        2.2423838005       -1.0050865810
 C       -11.1597212493        2.9973221512        0.6482469991
 C       -10.1909650120        4.1502623784        1.2413608890
 O        -9.5989551454        4.8623008032        0.4556879108
 C       -10.0875966658        4.3992557652        2.7568947589
 C       -11.3793163079        5.1160598851        3.3724120111
 C       -11.6724885660        4.6466092229        4.7814155920
 O       -11.1462469370        3.7073312462        5.2736055461
 C       -12.6223651723        5.5309480246        5.7297687806
 C       -14.1077911982        4.9807011793        5.4648289766
 O       -14.2963628431        4.0416105022        4.6968138957
 C       -15.2014299345        5.8064272027        6.2081985706
 C       -16.6820883894        5.2434854267        5.8401459874
 C       -17.3612441998        6.1176499424        4.8163719394
 O       -17.1494491999        7.2383168871        4.4359334689
 C       -18.6452716555        5.3286455109        4.1109581681
 C       -18.2697471292        3.9466464155        3.7676611995
 O       -18.2406078032        3.1512646481        4.7092482198
 C       -17.8855275006        3.4444746612        2.3698359340
 C       -19.6665454475        5.1191856115        5.3612170128
 C       -19.1166558716        6.1969881816        2.9544405406
 C       -12.2770800782        5.2558329250        7.1353207699
 C       -12.6295614597        7.0041378821        5.3346859481
 C       -12.1095307168        3.8411743342       -0.3608861940
 C       -12.1880107354        2.3676642597        1.7264215316
 C        -9.5690734163       -0.7586090802       -3.0038811466
 C        -7.1406415553       -0.3579311534       -3.2158104257
 C        -5.7867681665        3.5895447592       -8.3491604703
 C        -4.2548059610        2.4341778560       -6.5379162703
 C        -3.3602285814        5.2715737501       -0.1599388582
 C        -2.9522435790        3.4897075844       -2.0268672229
 H        -4.3244960080        1.5223581572        1.3387026183
 H        -3.0201269892        2.1792952366        0.4742532803
 H        -3.9133909559        1.1638664699       -0.4538516369
 H        -3.7289490801        5.0772554551       -3.8811672760
 H        -4.9331098221        6.2607296986       -3.6473470530
 H        -6.4992530928        4.4417374750       -4.3020997203
 H        -5.3150541604        3.3224243089       -4.1862072700
 H        -8.9253621485        2.5815636000       -7.0959121625
 H        -8.1416093048        3.2948863158       -5.6090345143
 H        -8.2593203573        0.2740673284       -5.6283628454
 H        -9.8646492388        1.0892905687       -5.3805883833
 H        -8.1111145149       -0.3514525859        0.6983220072
 H        -9.0755773063       -1.2004376108       -0.4422940509
 H       -10.2929446458        0.4021352216        1.5003393748
 H       -10.7563378690       -0.2269543639       -0.0367121660
 H        -9.1552905373        5.0157427673        2.8354318538
 H        -9.7963337236        3.5574229034        3.4533635481
 H       -12.1600598485        4.9698341939        2.6634409659
 H       -11.1478054036        6.1810920291        3.7241137500
 H       -15.0548725960        6.7646515667        5.8063620055
 H       -14.8586442753        5.8468945844        7.2166584716
 H       -17.3318285158        4.9956842006        6.6487948899
 H       -16.4521106156        4.3002779676        5.4203071630
 H       -16.9968529269        3.9413666514        1.9718420083
 H       -18.6647042832        3.6231917925        1.5243553535
 H       -17.7099096303        2.3467629027        2.4551246188
 H       -20.5551687841        4.6622631962        5.0291648190
 H       -20.0296755098        5.8254111487        6.0649014248
 H       -19.2323360095        4.3693683347        5.9981540566
 H       -20.0544502242        5.9531684961        2.4146369000
 H       -18.3368383592        6.4214931851        2.2390617898
 H       -19.3626376659        7.1543759550        3.3738909740
 H       -12.9149621780        5.8425883328        7.7628514202
 H       -11.2730913450        5.5388424438        7.4735103386
 H       -12.4530902333        4.2378832926        7.3464958645
 H       -12.9013642969        7.7867680912        6.1098593811
 H       -13.3381329992        7.1705683380        4.5125158271
 H       -11.6680671228        7.5156544403        4.9870549014
 H       -11.4317006644        4.5555782466       -0.9069346740
 H       -12.8607320884        4.3898733771        0.2390614951
 H       -12.7246733858        3.1427534485       -0.8857966946
 H       -12.9940704171        3.1091663151        1.9777395255
 H       -11.6527750524        2.1174344713        2.6739243812
 H       -12.6787779344        1.4555223592        1.3586307171
 H        -9.6291197931       -1.5336360746       -2.3619785026
 H        -9.5127849971       -1.3049364464       -3.9530212172
 H       -10.4998401274       -0.2549712085       -3.1301722740
 H        -6.3550528918        0.3749035860       -3.1090904191
 H        -7.1041588487       -1.0328119328       -4.0975865333
 H        -6.9097361416       -1.1584288529       -2.4888278748
 H        -6.3410706200        2.7377509048       -8.7505814987
 H        -4.8827744093        3.8487532661       -9.0363277430
 H        -6.4505934870        4.4001645727       -8.2907422388
 H        -4.1242949729        1.9666265086       -5.5193005209
 H        -3.4314005144        3.1002391733       -6.7436916921
 H        -4.1925080867        1.6925436592       -7.2812216414
 H        -2.4501474736        4.9056484053        0.3558776719
 H        -3.8595766258        5.5252473438        0.7166620600
 H        -3.1216362897        6.2488130617       -0.7483922259
 H        -3.2869866584        2.9998321551       -2.9560233591
 H        -2.4917502770        2.6682049128       -1.5844087997
 H        -2.1662145302        4.2632528156       -2.1969310969
 Na       -7.6845695804        3.8071779079       -0.9925246593
