117

 C        -3.9786316695        1.8682021906        0.3483776957
 C        -4.6241905134        3.2014746871       -0.0433157274
 O        -5.6720055122        3.4654933022        0.4965794954
 C        -4.0224191598        4.1896637542       -1.0427478730
 C        -5.1378923395        4.9382676881       -1.9474272033
 O        -6.1429909541        5.3235340189       -1.4110789342
 C        -4.7784765589        5.2163209897       -3.4138506344
 C        -5.6004940519        4.2706160515       -4.3678673734
 C        -5.5508505366        4.4377082468       -6.0059574629
 O        -5.5950914923        5.5462713784       -6.5561192906
 C        -5.6298103249        3.0492396301       -6.9327624529
 C        -6.7914703306        1.9424983985       -6.7022204986
 O        -6.4759075086        0.8550380177       -7.1010674865
 C        -8.2821692962        2.2967829230       -6.2393967133
 C        -8.7290087937        1.2515918366       -5.1728824925
 C        -8.3591124065        1.5149427655       -3.7427173546
 O        -7.7781393568        2.5046983847       -3.3582088134
 C        -8.4077746288        0.1292095446       -2.7718371998
 C        -8.1928126303        0.4499341465       -1.2895764060
 O        -7.2569241566        1.2516257008       -0.9080213680
 C        -8.9460669318       -0.2751555079       -0.1277285088
 C       -10.2134605162        0.4691033788        0.3672460175
 C       -10.3183535734        2.0410687318       -0.0914159117
 O        -9.5764887309        2.3039594986       -1.0160338531
 C       -11.1961181920        2.9522108539        0.6764792972
 C       -10.2644132832        4.0526994153        1.2628229722
 O        -9.4771061543        4.5584594001        0.4691315742
 C       -10.1628628882        4.3467618124        2.7254334260
 C       -11.2502767134        5.3719131336        3.2029024468
 C       -11.6195124704        4.8641873742        4.7497124973
 O       -11.1884498238        3.8008283719        5.0760426436
 C       -12.6054571855        5.6290947221        5.5472632153
 C       -14.1040789355        5.0856129793        5.3604338469
 O       -14.3657074522        4.0661862211        4.8068415711
 C       -15.1550920295        5.9073762326        6.1367280234
 C       -16.5961942059        5.3395077824        5.8209137134
 C       -17.3646406733        6.1233905057        4.7533616345
 O       -16.9805733975        7.2346197900        4.4763323892
 C       -18.5881547159        5.4931779301        4.1198724629
 C       -18.2299673761        3.9303830261        3.7389411419
 O       -18.2939902400        3.0645556988        4.6987224481
 C       -17.8938166180        3.4058635807        2.4210600657
 C       -19.6851439106        5.3074943412        5.2529967135
 C       -19.1356438359        6.2896029484        2.9397293243
 C       -12.2049834507        5.3956073154        6.9785202664
 C       -12.5625901028        7.1643549917        5.1790077354
 C       -12.1013695971        3.7645030187       -0.3152536822
 C       -12.1630931347        2.2641072174        1.7375553020
 C        -9.6454493731       -0.7942142983       -2.9943835399
 C        -7.0961441347       -0.6806493825       -3.1959607336
 C        -5.7611417712        3.5042303374       -8.4613008001
 C        -4.2124482212        2.3953708262       -6.5215769155
 C        -3.2871530190        5.2922827857       -0.2772660026
 C        -2.8239377557        3.5471305183       -1.8052281325
 H        -4.6721431388        1.4325686914        1.1471411595
 H        -2.9932050670        1.8682648818        0.6998722939
 H        -3.9130872191        1.3883819524       -0.6000004850
 H        -3.8266989724        5.1657109710       -3.7999743027
 H        -5.1148808149        6.3187285296       -3.7372395103
 H        -6.6766183538        4.4284684584       -4.1819792054
 H        -5.5022212515        3.1931201009       -4.0860699277
 H        -8.8644830061        2.0076053605       -7.1399713555
 H        -8.5845993246        3.3813086073       -5.9159519281
 H        -8.2784063626        0.3314608616       -5.5228075956
 H        -9.7537771070        1.1565588984       -5.1385488904
 H        -8.2687885333       -0.2599274489        0.6860218121
 H        -8.9650428870       -1.3252733914       -0.3823233346
 H       -10.0286050852        0.4946330722        1.4277899323
 H       -11.0674164234       -0.2818077336        0.1958310525
 H        -9.1064101081        4.6145981088        2.8541221290
 H       -10.2725385814        3.5702812846        3.3684110699
 H       -12.1080545693        5.0257979092        2.6275914024
 H       -11.0681062540        6.4866507124        3.1630085239
 H       -15.0683901164        6.9514262981        6.0006305705
 H       -14.9058139487        5.6656510254        7.0915869875
 H       -17.2251031767        5.6581032605        6.6896707945
 H       -16.4466980049        4.2851568188        5.9731453789
 H       -17.4212882881        4.1689285424        1.7923903941
 H       -18.8996101168        3.2327358641        1.8483221516
 H       -17.2902022424        2.4125387321        2.3923332723
 H       -20.4849066000        4.6595004928        5.0636400973
 H       -20.2028664902        6.2847467198        5.5846156235
 H       -19.2771870230        4.9633916980        6.2193390239
 H       -20.0867564055        6.0045818869        2.6811553692
 H       -18.6090344024        6.0651798040        2.0876565128
 H       -19.1656408742        7.3978521002        2.9752057797
 H       -12.9456680644        5.7918669408        7.6822712648
 H       -11.3113543274        5.9549247709        7.2196576211
 H       -11.9625387110        4.3140366038        7.1856738388
 H       -13.1911861993        7.7312272082        5.8127114563
 H       -12.9108816602        7.4734092021        4.1044199242
 H       -11.6800843057        7.7024224977        5.4067286064
 H       -11.4118920368        4.2479271350       -0.9935027965
 H       -12.6268316965        4.5447043776        0.2657373477
 H       -12.8652516552        3.0546421724       -0.6975918668
 H       -13.1982949972        2.7099113239        1.6969512513
 H       -11.7776778912        2.2342058973        2.7702478815
 H       -12.3087832409        1.1587706406        1.4405358041
 H        -9.7590943272       -1.6737831932       -2.2300655106
 H        -9.5089321192       -1.3066201948       -3.8414467608
 H       -10.5954165005       -0.3700698658       -3.1308587406
 H        -6.3377756668        0.0186098517       -3.4679835429
 H        -7.2844669469       -1.4592340096       -3.8588407890
 H        -6.6379880383       -1.3035488769       -2.3562171381
 H        -6.3672096506        2.8219074936       -8.9775571047
 H        -4.8022713490        3.6736278104       -8.9452607421
 H        -6.2352130787        4.4346898480       -8.3549320257
 H        -4.2119969227        2.0309503275       -5.5033539780
 H        -3.3988685680        3.1285097051       -6.6866857451
 H        -3.9550593686        1.4996297774       -7.2219806763
 H        -2.6239283573        4.8148896754        0.5005558919
 H        -3.6659508164        6.1746449261        0.3846885340
 H        -2.6582192046        5.7127432245       -1.0684102293
 H        -3.0006705915        2.6875438288       -2.3620552629
 H        -2.1538478541        3.1816809184       -1.0875051736
 H        -2.2826787696        4.3040087769       -2.3806710809
 Na       -7.6912642400        3.7405495252       -0.8280456148
