117

 C        -3.9267123653        1.8975119212        0.2713881103
 C        -4.6527983422        3.2360664991       -0.0702656318
 O        -5.6610912854        3.5672028258        0.4848947371
 C        -3.8000565462        4.2062431371       -1.0924277814
 C        -5.0658254359        4.8850705452       -2.0044983225
 O        -6.0635053901        5.2129869489       -1.4564892090
 C        -4.8946442168        5.2058911075       -3.4802931711
 C        -5.7911612324        4.1928586029       -4.3770592659
 C        -5.7403104714        4.3279194993       -5.8905090430
 O        -5.6853033516        5.4590840565       -6.3692032159
 C        -5.6517104335        3.1254786454       -6.8945533083
 C        -6.6733271819        1.9482652141       -6.6348558087
 O        -6.4938217163        0.7468278779       -6.8162559089
 C        -8.2007210609        2.2049989488       -6.1901574094
 C        -8.6897755778        1.2085221923       -5.1181443748
 C        -8.1738260849        1.4213383350       -3.5715679084
 O        -7.9865622929        2.4932792432       -3.1597974827
 C        -8.2387200442        0.0781852168       -2.8003889970
 C        -8.2110091620        0.4357457606       -1.2701507764
 O        -7.4105552634        1.2794091123       -0.8911725744
 C        -9.0380924647       -0.3131251846       -0.1314615562
 C       -10.2643708364        0.4725356924        0.3458403255
 C       -10.3821396348        1.9397282481       -0.0640980401
 O        -9.8717044805        2.3995146154       -1.0865106029
 C       -11.3107056976        2.8808084321        0.6749417235
 C       -10.1291175899        3.9393271340        1.2550723168
 O        -9.2994702574        4.3772872618        0.4826710096
 C       -10.1590667242        4.3557034589        2.6579375442
 C       -11.1748042221        5.3723160506        3.1039826060
 C       -11.6775829449        4.9600204309        4.5473508448
 O       -11.2209389419        3.8839543991        4.9521707004
 C       -12.5523299310        5.8354772335        5.4360280185
 C       -14.1310846984        5.1732133288        5.3433841808
 O       -14.3508382752        4.1186044291        4.8033481444
 C       -15.2421850928        5.9237864114        6.1095030882
 C       -16.6177119646        5.4350255148        5.9982888035
 C       -17.2640382590        6.1756436709        4.7996483555
 O       -16.8530660966        7.2441678201        4.3637352888
 C       -18.5730681266        5.3886767327        4.1201695466
 C       -18.3074126621        3.8673220597        3.8014054158
 O       -18.2993887473        3.0360766605        4.6890255679
 C       -17.9343552411        3.5291584273        2.3538901905
 C       -19.6993946681        5.6152538465        5.1272462595
 C       -19.1113260659        6.2204529443        2.9698874675
 C       -12.1174067943        5.6199633208        6.9802116516
 C       -12.4728852648        7.3704450855        5.0557543148
 C       -12.1620428401        3.6684115229       -0.3893698159
 C       -12.1315105286        2.2147210800        1.7622695059
 C        -9.6301321529       -0.5999664467       -3.0636170777
 C        -7.0600384805       -0.9689268431       -3.1565895939
 C        -5.6186564362        3.4549357815       -8.3693021612
 C        -4.3005757086        2.3915625478       -6.6919546373
 C        -3.2664775069        5.4662601003       -0.2112535032
 C        -2.7538795827        3.4418700487       -1.8211416540
 H        -4.5309285002        1.3724890514        0.9535254579
 H        -2.8695556641        2.0624998778        0.7518603392
 H        -3.6690249004        1.4222332522       -0.6878408110
 H        -3.9202374426        5.1893816961       -4.0121035237
 H        -5.2653249666        6.1981940124       -3.7592864708
 H        -6.8854547736        4.0451541341       -3.9252734142
 H        -5.4062568832        3.0975896607       -4.2675604847
 H        -8.7960795022        2.1174359932       -7.0785753313
 H        -8.3700269910        3.1883469421       -5.7003793911
 H        -8.6549342811        0.2374829326       -5.5033370920
 H        -9.7531602648        1.5262011009       -4.8858366412
 H        -8.3924507695       -0.5489805035        0.7105791059
 H        -9.1941981873       -1.2567639833       -0.5580762805
 H       -10.3678543562        0.3174497013        1.4583782252
 H       -11.1814129757        0.0226866361       -0.1687946724
 H        -9.2131823601        4.7719749572        2.8667429672
 H       -10.1544063342        3.5400984117        3.3268336115
 H       -12.0685300663        5.5559040949        2.4476067886
 H       -10.6631339439        6.2763648847        3.3188731114
 H       -15.2242131215        6.9209684770        5.6250698338
 H       -14.8313194116        6.0339744387        7.1416718353
 H       -17.1971287535        5.6294692435        6.9444792221
 H       -16.4703711835        4.3101721131        6.0107255302
 H       -17.8072405943        4.3872388857        1.6125193225
 H       -18.7027357364        2.9881127751        1.8855712233
 H       -17.0171944261        2.9046698126        2.3152369645
 H       -20.7369737178        5.0896122146        5.1079214297
 H       -19.9249855501        6.6682550689        4.9461107409
 H       -19.5517105978        5.6695721885        6.2157991942
 H       -20.1277332277        6.0936489825        2.6784293432
 H       -18.6745760528        5.8899560602        1.9877652021
 H       -18.9525003444        7.2507406738        3.0332281366
 H       -12.8892583737        5.9065255314        7.7420349067
 H       -11.2163977548        6.2057897741        7.2262960192
 H       -11.7454186742        4.5628676162        7.1155166681
 H       -13.2266737526        7.9149540182        5.5777598138
 H       -12.5011572103        7.6814631317        4.0483688672
 H       -11.6816521713        7.8397361108        5.5856226457
 H       -11.4365173438        3.8389703937       -1.1354899257
 H       -12.4958675605        4.6662311578       -0.0453850140
 H       -13.0027145662        2.9861253938       -0.6756006121
 H       -13.1513690912        2.5734039072        1.8772829864
 H       -11.5833506746        2.0979883173        2.7161794302
 H       -12.2669863084        1.1601798382        1.4397911840
 H        -9.6898703251       -1.5358881865       -2.4619845364
 H        -9.7994319772       -0.9580444047       -4.1387246014
 H       -10.5520078214       -0.0402825000       -2.7978389234
 H        -6.2434486462       -0.3725025593       -3.5611572591
 H        -7.5438450595       -1.6121013601       -3.8771412814
 H        -6.6167829895       -1.6618834081       -2.4510801360
 H        -6.0233978515        2.6364759216       -8.9014581739
 H        -4.6480473811        3.5483707602       -8.5400590266
 H        -6.0753639862        4.4228318880       -8.6257615866
 H        -4.2972595071        1.9923849317       -5.6814638750
 H        -3.3478734836        2.9441611325       -6.9249884387
 H        -4.3269484601        1.4991177328       -7.3605612065
 H        -2.9364337300        5.2228168869        0.8292648690
 H        -4.0766844008        6.2425401504        0.0562422458
 H        -2.5515143109        6.0550275653       -0.7295336175
 H        -3.0752450841        2.4358559747       -1.9520421408
 H        -1.7920424059        3.3024013117       -1.2436650284
 H        -2.5150535401        3.7752442491       -2.7560516057
 Na       -7.6654192060        3.6139006286       -0.7278479530
