117

 C        -7.5637138793       -6.2877291682        2.8842160173
 C        -8.9797821773       -5.7084841247        2.6437028148
 O        -9.8680284394       -6.4641110775        2.3680353033
 C        -9.2720403482       -4.1266674800        2.7760584689
 C       -10.2940745543       -3.8152559590        1.6229414695
 O        -9.9516372600       -3.8731672581        0.4447966198
 C       -11.7423234919       -3.5153804359        1.8627816989
 C       -12.5854197123       -3.3838505429        0.5781453569
 C       -12.5913184652       -2.1488621769       -0.4181791271
 O       -12.2358212013       -2.2863198687       -1.5716771908
 C       -13.2899651729       -0.7945335134        0.0944849795
 C       -12.0156768964        0.1025226123        0.3743136008
 O       -11.3682826413       -0.1255246821        1.3671560298
 C       -11.4629142443        1.0627600622       -0.6883121284
 C        -9.9144751630        1.2106914841       -0.4700505728
 C        -9.4691436718        2.5097494526       -1.1064621901
 O        -9.4143778486        3.6091544067       -0.5032779520
 C        -9.2007499091        2.5378271966       -2.6586671274
 C       -10.4203149265        3.3709328897       -3.3432581036
 O       -11.4933089552        3.5034113791       -2.8079571230
 C       -10.3168947660        4.0786982453       -4.6822943324
 C       -11.1022348414        5.3939879299       -4.6670150240
 C       -10.6567226617        6.1076629543       -3.4137560994
 O        -9.6275342477        5.7079255307       -2.9299630479
 C       -11.4755013837        7.1467591661       -2.6680459053
 C       -10.4474855329        8.0110871659       -1.8663547089
 O       -10.0565273250        7.4996558508       -0.8300753296
 C       -10.1087458986        9.4147458806       -2.3314146134
 C        -9.3651759479       10.3143595938       -1.2923261304
 C       -10.2498659101       10.5925008463       -0.0558585619
 O       -11.4487874060       10.4156683560       -0.0645074516
 C        -9.5099016951       11.0690278490        1.2742393429
 C        -8.5374412732        9.8723665328        1.7489229743
 O        -7.5450285951        9.6584389164        1.1150806631
 C        -8.9235712284        9.1798339671        3.0505568563
 C        -7.8773761440        7.9715022595        3.2749611951
 C        -7.7811094772        7.0635585923        2.1278330126
 O        -8.6340871123        7.0932345351        1.2806814720
 C        -6.5724941955        6.0362720292        2.0377021132
 C        -5.6918792632        6.3354323700        0.6749802679
 O        -6.1975502444        6.1902322223       -0.4446329095
 C        -4.4198763194        7.1091128682        0.7831324001
 C        -5.6036600374        6.1384881681        3.3748596083
 C        -7.1395163448        4.5594123238        1.8166468653
 C        -8.7491182067       12.3405013282        1.0357903453
 C       -10.5593656356       11.3849084452        2.3608344381
 C       -12.2385074276        8.0123340212       -3.6448924112
 C       -12.3870276776        6.3571486692       -1.6217105799
 C        -7.7779260820        3.2231397438       -3.0895780941
 C        -9.2661812072        1.1367694666       -3.3483604119
 C       -14.2244363852       -0.1048518313       -0.9450078940
 C       -14.0163561386       -0.8007643278        1.3871058122
 C        -9.8955223945       -4.0314963050        4.1999490348
 C        -8.0512292365       -3.2678060387        2.5604141951
 H        -7.0259603329       -6.3945343883        1.9956392420
 H        -7.6099186089       -7.2990170535        3.1804409164
 H        -6.9726016823       -5.6462629955        3.5009395450
 H       -11.8096863365       -2.5956032012        2.5078035636
 H       -12.2982102281       -4.3786063875        2.3558554878
 H       -13.6038682694       -3.6083866844        0.8821425461
 H       -12.2827033641       -4.2210114923       -0.1289487518
 H       -12.0085389973        2.0577738908       -0.5649710862
 H       -11.6471806340        0.7458979033       -1.7129320715
 H        -9.4772349764        0.3507709459       -0.9687633574
 H        -9.6606771856        1.2998801830        0.5695304209
 H       -10.7430093494        3.5381756962       -5.5173613071
 H        -9.2850548510        4.3367839860       -4.8195104047
 H       -12.1340879686        5.1311649602       -4.6350399210
 H       -10.9328104166        6.0023525574       -5.5059099956
 H       -10.9626325733       10.0164041339       -2.5281353571
 H        -9.5481367411        9.3146921923       -3.2312994174
 H        -9.3623701368       11.3030285326       -1.8704172408
 H        -8.3256703125        9.9996348990       -1.0906130446
 H        -9.9365607718        8.7704433897        2.9610036885
 H        -8.8268685698        9.8553956115        3.9124139343
 H        -8.1438467717        7.3586642565        4.1063083041
 H        -6.9575042990        8.4502581068        3.6148755929
 H        -4.5329193400        8.0171806388        1.3056551932
 H        -3.9889979736        7.2186007090       -0.2402341313
 H        -3.6556264323        6.5745103248        1.4020958828
 H        -6.1265292963        6.0600431218        4.3019148960
 H        -5.0250834813        7.0870839816        3.3565142822
 H        -4.9005251547        5.2694144184        3.3550743166
 H        -6.2948044033        3.9533421068        1.5418981513
 H        -8.0175990795        4.5199740010        1.1215025827
 H        -7.4397173203        4.0849616199        2.7076051177
 H        -8.2368545118       12.4793930595        1.9913498355
 H        -9.3158375949       13.2048627432        0.6604162210
 H        -8.0077078468       12.2174428895        0.2619668818
 H       -10.1753867031       11.3919974045        3.3914328860
 H       -11.5190790159       10.7272258077        2.2501816961
 H       -10.9401358941       12.3509714784        2.0909454478
 H       -12.5877741544        7.3019170919       -4.4222293357
 H       -11.5714344990        8.7480314439       -4.0898142750
 H       -13.1257592105        8.4500713616       -3.2849251032
 H       -13.0220102749        5.6896876216       -2.0661490953
 H       -13.0501063860        6.9597287267       -0.9856409298
 H       -11.6684920709        5.7897226341       -1.1307646534
 H        -7.4296248902        2.9316641944       -4.1026224963
 H        -7.0052640772        2.8885218483       -2.4285317101
 H        -7.8177705559        4.2621360405       -2.9099739679
 H       -10.2465373692        0.6719083679       -3.2981855089
 H        -8.6357023933        0.4212135482       -2.9294585751
 H        -8.9045954130        1.2892877178       -4.4027155718
 H       -15.1372070165       -0.6928948071       -1.1245275716
 H       -13.9240897953       -0.1592675109       -1.9697207574
 H       -14.4843120922        0.8831972836       -0.6395301748
 H       -14.7763453257       -1.5909477234        1.3626972602
 H       -14.5288943796        0.0933197613        1.6558200390
 H       -13.3307971050       -1.0704627302        2.1916766646
 H       -10.8106727355       -4.6269184062        4.1804462686
 H       -10.2472738701       -3.0016252014        4.3543716346
 H        -9.1709660904       -4.2659057232        5.0322031279
 H        -7.2945531772       -3.5735639716        3.2143036764
 H        -8.1484740876       -2.2294746847        2.7426699229
 H        -7.8189985938       -3.4545086372        1.5031615937
 Na       -8.4903719149        5.8216193821       -0.7446436239
