117

 C        -3.5364689020        2.0624368089        0.3709527085
 C        -4.3697678514        3.3311709657       -0.0026059512
 O        -5.5176035309        3.4275859980        0.4725765107
 C        -3.7351150680        4.4164815510       -1.0489838803
 C        -4.8780958288        4.7622046939       -2.1943261125
 O        -6.0341135746        4.8102342588       -1.7646584337
 C        -4.6012311625        5.0001340558       -3.6938182092
 C        -5.3538194206        3.7457507699       -4.2775205451
 C        -5.7889437210        4.0937867916       -5.6643207425
 O        -6.2937572248        5.1165633581       -5.9775470726
 C        -5.6113429903        2.8523205005       -6.6816599628
 C        -6.4991616566        1.6911994827       -6.1259721272
 O        -6.0816086044        0.6227343915       -5.8104454897
 C        -7.9432205142        2.0095915182       -5.9202914774
 C        -8.9257958495        1.2094242254       -4.9094580741
 C        -8.5768755816        1.3450477681       -3.4676009472
 O        -8.0090116556        2.2881974840       -3.0291314373
 C        -8.6514486262       -0.0585110433       -2.6759116342
 C        -8.3777273198        0.1996165913       -1.0773079588
 O        -7.2426898589        0.5955119357       -0.7392199133
 C        -9.2163186081       -0.2937200308        0.2025621344
 C       -10.6471487889        0.2039067242        0.2431187735
 C       -10.8120903115        1.6197288832       -0.1737350258
 O       -10.7022243266        1.8911756918       -1.4167663832
 C       -11.2702974257        2.7933194218        0.8160943094
 C        -9.9764453690        3.6776196097        1.1958883285
 O        -9.1870474382        3.9868484719        0.2991560001
 C       -10.0741058584        4.4864174740        2.5972743524
 C       -11.2912483574        5.3730526975        2.9186982407
 C       -11.7681214119        5.1443608666        4.4603902797
 O       -11.5025153432        4.0859324882        5.0082196402
 C       -12.5730067113        6.3444594088        5.2311192375
 C       -14.0487870297        5.7021688032        5.2961139579
 O       -14.3796057386        4.8132354452        4.5248920243
 C       -15.0870186362        6.2768184232        6.1795941528
 C       -16.5425058628        5.7362030877        5.8245016315
 C       -16.9869648325        6.2749247755        4.4470650140
 O       -16.2802078413        6.9676825864        3.7097577169
 C       -18.4699124846        5.7623856515        4.1087439704
 C       -18.3474367589        4.1820505106        3.9087528120
 O       -18.5476243183        3.4792868606        4.8323172397
 C       -17.9521938769        3.5135823431        2.5147426150
 C       -19.4810080356        5.9877931963        5.2103267003
 C       -18.9710089952        6.4901470210        2.7577673288
 C       -11.9520989444        6.6235503169        6.6763637854
 C       -12.6551332893        7.6079646788        4.4352829142
 C       -12.2006596391        3.7989085965       -0.1415048297
 C       -12.0406719176        2.1719289128        1.9217774060
 C        -9.9531562952       -0.7409629201       -2.9572107890
 C        -7.4258397121       -0.7511587565       -3.1808151211
 C        -5.9353792978        3.1615830341       -8.2542133151
 C        -4.0339573756        2.5186168897       -6.7760378361
 C        -3.4145840436        5.7854816906       -0.4234959340
 C        -2.6180797926        3.6464951760       -1.7966546991
 H        -3.9020206496        1.6198340581        1.2455368979
 H        -2.4021006571        2.1711228522        0.3884731507
 H        -3.8579806768        1.4078261562       -0.4596752391
 H        -3.4928422790        5.1734129599       -4.0482852633
 H        -5.1023325819        5.9051124863       -3.9444871242
 H        -6.1415639451        3.4531435407       -3.5265395713
 H        -4.8308253219        2.7514416821       -4.1777025006
 H        -8.4134934858        2.0509679214       -6.9495259349
 H        -7.9425303036        3.0114675520       -5.5792403350
 H        -9.0786122461        0.2275186469       -5.1463612209
 H        -9.8799308898        1.7265112439       -5.1221886282
 H        -8.4846527241       -0.1041921464        0.9820534724
 H        -9.4478985174       -1.3228861766        0.2185237529
 H       -11.0925410144       -0.0496538269        1.2624172617
 H       -11.1969893582       -0.4784110680       -0.4174256893
 H        -9.1808326177        4.9621785670        2.8116085908
 H       -10.1616501401        3.6806388515        3.3059934203
 H       -12.2063412214        5.2346588524        2.2168180427
 H       -11.1298930058        6.4144287510        2.8364112842
 H       -15.0895885643        7.3045640714        6.0918401522
 H       -14.8104191156        6.0801477196        7.2068858303
 H       -17.1165002910        5.7991265866        6.7589090449
 H       -16.5011042969        4.6643373115        5.5378663184
 H       -18.4217195227        3.6237218505        1.4804980186
 H       -18.2072657810        2.4458896970        2.7216428670
 H       -16.8132014312        3.6437587655        2.3892822307
 H       -20.5401269686        6.0741407817        4.7318885697
 H       -19.3873064510        6.9407611868        5.6809576821
 H       -19.5386927858        5.3121547515        6.0708772121
 H       -19.3404660861        5.8005903169        2.0374680961
 H       -18.2791313005        6.9756913257        2.0795135961
 H       -19.7183154491        7.0958134366        2.9825686821
 H       -12.4405978497        7.4826627075        7.1232630493
 H       -10.8730225119        6.7266063423        6.5875218729
 H       -12.0264918417        5.7281191259        7.2477184374
 H       -12.9722118901        8.4533542456        5.1702694768
 H       -13.3424510440        7.5080084712        3.6821657475
 H       -11.6447167693        7.9734481760        4.0365435580
 H       -11.5217041032        4.3842277225       -0.7226679851
 H       -12.4971490311        4.5097912575        0.6080699888
 H       -12.9107765207        3.3019970289       -0.8043770721
 H       -12.6139573697        2.9798694103        2.4302872732
 H       -11.3390586576        1.5535904706        2.6066050458
 H       -12.8531031189        1.5019160490        1.5641642083
 H       -10.1954973470       -1.3736373260       -2.2282531763
 H       -10.0613457640       -1.1637441915       -4.0193539596
 H       -10.7820223034       -0.0493748200       -2.6519872514
 H        -6.6077539295       -0.4873349759       -2.5121365695
 H        -7.1968586515       -0.3942694103       -4.2152164948
 H        -7.4070946794       -1.8186107828       -3.2170067102
 H        -5.1012829785        2.7684140403       -8.7274032705
 H        -5.9365280587        4.2188110021       -8.3096980002
 H        -6.8460929312        2.8089743812       -8.7022654505
 H        -3.6770555590        2.1676095918       -5.7614163616
 H        -3.3865085504        3.3746860110       -7.1195819135
 H        -3.8798311255        1.6728203443       -7.4159379415
 H        -2.3735718339        5.9870353867        0.0418072383
 H        -4.1849455255        5.9379892558        0.2974984112
 H        -3.7660019318        6.7303210953       -0.9643031109
 H        -2.9358587305        2.8810192122       -2.4142567443
 H        -1.7622501129        3.3854430336       -1.1969713370
 H        -2.2338976702        4.2697626981       -2.5138288545
 Na       -7.3994292910        3.1225718400       -0.9737861064
