117

 C        -3.3000038526        2.2527638894        0.5937827328
 C        -4.2184693331        3.3060965826        0.1022838494
 O        -5.3624238024        3.3755449402        0.3586734145
 C        -3.6836941360        4.3190099359       -0.9800532093
 C        -4.9736252906        4.7023333864       -1.9913935044
 O        -6.0955455164        4.7018093922       -1.6438159687
 C        -4.6862188659        5.0624681352       -3.5151749872
 C        -4.8997729661        3.9319176735       -4.4431126735
 C        -5.7317745067        3.9968733574       -5.7465879447
 O        -6.4529318234        4.9130749297       -6.2420748824
 C        -5.6702134628        2.6570543583       -6.6918683327
 C        -6.4782918238        1.5930503283       -5.9983944343
 O        -5.9207746220        0.6948046141       -5.3692017583
 C        -8.0418943431        1.7020828737       -6.0051488689
 C        -8.9378413621        1.1417989223       -4.9400607105
 C        -8.5873010268        1.2782229976       -3.4462018909
 O        -8.0472484914        2.3177342305       -3.0364319764
 C        -8.6686016271       -0.1246039181       -2.6644465400
 C        -8.3852556820        0.1871331509       -1.0813822308
 O        -7.3351103349        0.7325090199       -0.9108976439
 C        -9.2818090201       -0.2309553018        0.1307464235
 C       -10.8600866800        0.1216534670        0.1317101413
 C       -11.0827338209        1.6606763146       -0.2379241063
 O       -10.7685666385        1.9942000477       -1.3377390642
 C       -11.4935031671        2.7184273466        0.8035958292
 C       -10.0073628625        3.6072239461        1.3383393339
 O        -9.0294731901        3.6185423160        0.6061232535
 C       -10.1479640391        4.3355994903        2.6916249293
 C       -11.3337363447        5.2743261721        2.7394004679
 C       -11.6218729641        5.3128940861        4.3099237558
 O       -11.2897754337        4.4763157885        5.1408799665
 C       -12.6194420015        6.3840821912        4.8691852691
 C       -14.0184540595        5.7898631472        4.9392217446
 O       -14.3657146983        4.9365547899        4.1415920246
 C       -14.9741206334        6.3504365097        6.0253906877
 C       -16.4133171272        6.1097305052        5.8393701379
 C       -16.9054524617        6.3078925608        4.4334150421
 O       -16.2303611817        6.7399650449        3.5394358617
 C       -18.3256235852        5.9505563578        4.0849980015
 C       -18.3486500547        4.3017483224        3.9823193861
 O       -18.5368425582        3.5003096505        4.9579827684
 C       -17.8847930463        3.8002169951        2.6402104787
 C       -19.2947171064        6.4255387655        5.1020494084
 C       -18.7810425004        6.5052617433        2.6757520844
 C       -12.0370814990        6.7441920796        6.2447474832
 C       -12.7096987722        7.7511297319        3.9388302028
 C       -12.3351322266        3.8025649538       -0.0638387721
 C       -12.3295996130        2.2881204134        2.1610598785
 C        -9.9913992311       -0.8678634503       -2.7785441814
 C        -7.5607764903       -1.1573887459       -3.1498927889
 C        -6.4233489434        2.9766815313       -7.9974677791
 C        -4.1847123572        2.1731865306       -6.9692377865
 C        -3.3996781133        5.5959410642       -0.1887911365
 C        -2.2577829216        4.0475183963       -1.6119686017
 H        -3.8483929787        1.6466916604        1.3334427917
 H        -2.5012638680        2.8362275742        1.0672136069
 H        -2.9441261308        1.5905044129       -0.2088087722
 H        -3.7386973382        5.3980402334       -3.5600619591
 H        -5.3208844635        6.0089481319       -3.6197683097
 H        -5.3784794698        3.1108885457       -3.8781396008
 H        -3.9834324530        3.3683647592       -4.5105246686
 H        -8.3819993298        1.2457885058       -6.8723862754
 H        -8.3547630352        2.8056203857       -6.0714366311
 H        -9.2241411261        0.0200018871       -5.1540669051
 H        -9.8489947756        1.6552612327       -5.3129019620
 H        -8.6453381254        0.0320785325        0.9566105135
 H        -9.3517413165       -1.3696706961        0.1339003323
 H       -11.2925412045       -0.2539130763        1.0221645528
 H       -11.3717158814       -0.5287280662       -0.6027585194
 H        -9.1979892799        4.9440427218        2.6218665923
 H       -10.1409184703        3.6569706935        3.5651935108
 H       -12.1067223057        5.0035857685        2.1067434777
 H       -11.1795603399        6.3402519545        2.4466058683
 H       -14.7500027827        7.5154409299        6.1027012230
 H       -14.7934531217        5.9415383232        7.0776586709
 H       -16.8456761469        6.9911206603        6.3683796279
 H       -16.6870287794        5.2507001771        6.4659955186
 H       -18.7808866000        3.7602507076        2.0665219716
 H       -17.5321362681        2.8647028027        2.4754805253
 H       -17.3127434999        4.5424787006        2.2098032662
 H       -20.3185531196        6.2053335932        4.9939840965
 H       -19.2684473087        7.5398202595        5.3309523574
 H       -18.9802128364        6.0641844536        6.0776376184
 H       -19.7996125158        6.2936025106        2.2039085570
 H       -18.1266076915        6.2386696625        1.8180586547
 H       -18.6616892547        7.6543959457        2.7782037006
 H       -12.8898163989        7.1151886340        6.8273039702
 H       -11.2289994916        7.5007229592        6.1557850084
 H       -11.5656318144        5.8417192480        6.7622927670
 H       -13.6670649202        8.2429638796        4.0723869513
 H       -12.6478196862        7.6090983251        2.7854945567
 H       -11.7990744178        8.2954579663        4.1914671861
 H       -11.9277586133        3.9955583825       -1.0561011855
 H       -12.5463931217        4.6955409073        0.5133675237
 H       -13.1672067515        3.1618846370       -0.3071339468
 H       -13.3932510098        2.4520050112        1.9814467329
 H       -11.9505012752        2.8714330737        2.9368771272
 H       -12.1948351925        1.2629276799        2.5077526539
 H       -10.0738317606       -1.7636653466       -1.9928351049
 H       -10.1970538325       -1.1884091354       -3.7703540983
 H       -10.8010965544       -0.3536751236       -2.3658898667
 H        -6.5334338513       -0.7905131124       -2.9713056646
 H        -7.5872511966       -1.5298109353       -4.1632647457
 H        -7.7370019039       -1.9457362897       -2.3302029790
 H        -5.9794683163        2.3887283100       -8.8390345201
 H        -6.5473918940        4.0106407604       -8.2252906290
 H        -7.4788409352        2.5569125032       -7.8188428976
 H        -3.5621542979        1.8088379259       -6.2167605425
 H        -3.7342823458        3.0233106399       -7.4413715977
 H        -4.2636260350        1.4535955407       -7.8515831747
 H        -2.6411871744        5.3521418082        0.4515744950
 H        -4.2466945806        6.1677867923        0.2544871171
 H        -3.0132471154        6.3349802991       -0.7424642911
 H        -2.1289041644        2.9356004929       -1.6319540586
 H        -1.4801672232        4.5287888966       -0.9363135153
 H        -1.9666339621        4.2532862771       -2.6689369633
 Na       -7.4618609913        2.9202191736       -0.7272048555
