117

 C        -3.0853434233        2.3312782040        0.7705488159
 C        -4.1567333912        3.2660618416       -0.0066650355
 O        -5.2596366948        3.2763908294        0.4727856523
 C        -3.6358082100        4.3670101470       -1.0144625700
 C        -4.9548053389        4.6782277386       -2.0503892776
 O        -6.0814076747        4.6561551827       -1.6156223481
 C        -4.7780324440        5.0843445793       -3.5762570256
 C        -4.8019074617        3.8176666477       -4.5602977604
 C        -5.6736076260        3.9318385272       -5.8109458862
 O        -6.3547140468        4.8820800315       -6.0764366766
 C        -5.7967875005        2.6291676864       -6.7168734790
 C        -6.4984449990        1.5842303965       -5.7203218811
 O        -5.9846009496        0.7072540789       -5.0646771482
 C        -8.0528061511        1.6727650252       -5.9756368857
 C        -8.8757301600        0.8958454267       -4.9327351555
 C        -8.4090400044        1.1579833665       -3.4932073455
 O        -8.1499013933        2.2157859273       -3.0557732201
 C        -8.6709754661       -0.2344015013       -2.5951052039
 C        -8.4503456237        0.2164021886       -1.1275697535
 O        -7.3297043124        0.7501861395       -0.8520472221
 C        -9.3559140490       -0.2418320156       -0.0034984317
 C       -10.7445734109        0.1826348569        0.1724109661
 C       -10.9820553352        1.6597200670       -0.1457748940
 O       -10.7543164703        2.0373854909       -1.3136784863
 C       -11.5171500439        2.8240471892        0.7861320479
 C       -10.2258872952        3.4929184521        1.2874600593
 O        -9.1087533504        3.3026140612        0.7317920381
 C       -10.1476292973        4.2234883140        2.5661462456
 C       -11.2699998044        5.2685740657        2.8803475255
 C       -11.6247728397        5.4566570668        4.2907783691
 O       -11.1186292211        4.6461471968        5.0732045500
 C       -12.5851674994        6.5443316823        4.7780506420
 C       -14.0932125410        5.8061721964        4.7430268523
 O       -14.3828974266        4.8852426726        3.9847275819
 C       -14.8579627324        6.3970407551        5.8879633656
 C       -16.4051918821        6.3099478252        5.8316985691
 C       -16.8014140284        6.5132886381        4.3218081226
 O       -16.0046944164        6.7337788448        3.4432689412
 C       -18.3168690411        5.9470053202        4.1215718391
 C       -18.3055088483        4.4175418030        4.0317258427
 O       -18.5443569867        3.6716520303        4.9869862024
 C       -17.8558650984        3.7615223453        2.6457811470
 C       -19.4782174372        6.5024301353        5.1196105507
 C       -18.7793595178        6.6153528968        2.7487084710
 C       -12.0574182079        7.0411452520        6.1754882275
 C       -12.7038776423        7.6853059248        3.7615837286
 C       -12.4573084457        3.8274860319        0.0362040964
 C       -12.3068385105        2.2868576080        1.9774705420
 C       -10.0611262402       -0.8806709559       -2.8107383613
 C        -7.6944048326       -1.2627930709       -2.9254274794
 C        -6.5226463974        3.0235409129       -8.0386703347
 C        -4.3761005895        1.9408183281       -7.1242630671
 C        -3.5786202350        5.6326239096        0.0065774467
 C        -2.3138589998        4.1145043244       -1.6633868708
 H        -3.6144244881        1.7276675157        1.3799506865
 H        -2.3674853123        3.0241009443        1.3499375894
 H        -2.5977044830        1.6677489887        0.0959782174
 H        -3.7905627108        5.6500724341       -3.6078059253
 H        -5.5977213414        5.8016382891       -3.8065227037
 H        -4.9388004865        2.8957512702       -4.0982469342
 H        -3.8018946810        3.6512769404       -4.7784331946
 H        -8.2092048604        1.2234724139       -7.0273094032
 H        -8.3828171732        2.7793952951       -5.9910678490
 H        -9.0365519427       -0.1458740590       -5.1672399915
 H        -9.9213081929        1.2962121737       -5.0231622014
 H        -8.7188210612       -0.0453212602        0.9142791479
 H        -9.2905378450       -1.3631713494       -0.1286795867
 H       -11.0141558998       -0.0405482400        1.1612918033
 H       -11.4969194286       -0.3768296789       -0.3528679830
 H        -9.0793496103        4.6044556832        2.5612957563
 H       -10.2386319470        3.3085178084        3.3210151399
 H       -12.1025643618        5.0431686629        2.1353852595
 H       -11.0536558300        6.2938776116        2.5728187431
 H       -14.4922172674        7.4072769985        5.9353333699
 H       -14.4605132015        5.8652005477        6.7705873068
 H       -16.9391840318        6.9781368712        6.4922800183
 H       -16.6120356085        5.3089759309        6.1865384539
 H       -18.7146551557        3.6079155797        1.9765739441
 H       -17.5908652300        2.7600249844        2.7687109956
 H       -17.1502086008        4.3407368735        2.0904708126
 H       -20.4870554398        6.4296956102        4.6518938312
 H       -19.3421042169        7.5192561028        5.2212080222
 H       -19.5916670521        6.1491716493        6.0892232203
 H       -19.8224275113        6.6679571201        2.3872254248
 H       -18.2697810836        6.0247200823        1.8452580425
 H       -18.3531778523        7.5856146477        2.6812658208
 H       -12.7960864150        7.5769263487        6.7725727899
 H       -11.1374414678        7.5920593740        6.0983821623
 H       -11.8352987852        6.0616935777        6.6979613735
 H       -13.7587302864        8.0675414304        3.9387992555
 H       -12.7118178612        7.4776302202        2.7130830947
 H       -11.8106080668        8.3975269484        3.8786272053
 H       -12.1289924991        3.8659446804       -0.9721801689
 H       -12.5212241923        4.7936274759        0.5389861613
 H       -13.3999059284        3.2297586917       -0.0806079741
 H       -13.1148630197        1.8784774876        1.4741405664
 H       -12.5925620202        2.9327118639        2.8123607074
 H       -11.7483394922        1.4564701351        2.3368494139
 H       -10.2770428882       -1.6721935945       -2.2153042602
 H       -10.1054883368       -1.2141743325       -3.8690047361
 H       -10.8598407863       -0.1962309238       -2.6548308216
 H        -6.7165383174       -0.7928450144       -3.2517784935
 H        -7.9383627929       -1.8423672141       -3.8135390322
 H        -7.4911364681       -1.9347878398       -2.0402642648
 H        -6.1710277723        2.1340038977       -8.6672185208
 H        -6.0972055597        3.9339631562       -8.4669459690
 H        -7.6523404034        3.1019254610       -8.0176785686
 H        -3.9344363350        1.4122611914       -6.3244237076
 H        -3.6796168577        2.6911527628       -7.4438771817
 H        -4.5188999553        1.3041890548       -7.9781798084
 H        -3.1318844775        5.3079744286        0.9318419024
 H        -4.4856352703        6.1612340103        0.1075261745
 H        -2.8488676573        6.3871812646       -0.2703732034
 H        -2.2948401233        2.9967560545       -1.9235065054
 H        -1.4156436806        4.4209461998       -0.9642189525
 H        -2.0826248857        4.5615006596       -2.6119517369
 Na       -7.4873537242        2.9154655788       -0.6580333059
