117

 C        -3.8975178914        1.3935245183        8.9267561605
 C        -4.2306314800        2.8858105592        8.6771947046
 O        -3.4143871963        3.6729231973        8.3429266242
 C        -5.7863405232        3.4451094043        8.9111447204
 C        -6.2608677135        3.5902750710        7.4623999701
 O        -6.9840056442        2.6528713094        7.0492613873
 C        -6.0239125407        4.8743986378        6.5628984549
 C        -5.4809678301        4.4745944514        5.1967580753
 C        -6.1660102713        5.2368819387        4.0930102818
 O        -7.2771199109        5.6873952049        4.1646133117
 C        -5.4278816106        5.3055313275        2.6275224928
 C        -5.6069550622        3.8693705974        1.9763374966
 O        -4.6095054307        3.1482854739        1.8864532171
 C        -6.9416707133        3.1316441939        1.5770631563
 C        -6.6847324321        2.7271344795        0.1474009127
 C        -7.8206103317        1.9937380554       -0.6095525143
 O        -8.2841355806        2.4770778972       -1.6741690477
 C        -8.5286442394        0.5201645470       -0.2223432231
 C        -9.8287962775        0.8986837020        0.6622396448
 O        -9.6147241591        1.4248141276        1.7227896764
 C       -11.1740149618        0.4198145399        0.0411546762
 C       -12.4880445895        1.1859843500        0.4222570706
 C       -12.1917384123        2.7340054499        0.3203313650
 O       -11.0951201661        3.1518917725       -0.0579839258
 C       -13.4016891276        3.6172276845        0.1089949362
 C       -13.8264275273        3.5440533582       -1.4003948790
 O       -12.9358656171        3.2671665210       -2.2264127027
 C       -15.2432818533        3.8798505628       -1.9320007585
 C       -15.2996749131        4.0714340567       -3.4365764971
 C       -14.9564169079        5.4844536291       -3.9351602747
 O       -14.3838184083        6.2751126762       -3.2319386636
 C       -15.2395717052        5.8812970756       -5.4882927767
 C       -13.8047011135        5.6331761002       -6.0649756342
 O       -13.4894920010        4.5436039088       -6.4309775453
 C       -12.6864754142        6.7124159297       -5.7238616542
 C       -11.2128614719        6.3062585464       -5.8954014803
 C       -10.7837827136        5.0228085029       -5.1566844099
 O       -10.6989669195        5.1244698554       -3.9539325701
 C       -10.4219531963        3.6975986617       -5.8828846594
 C       -11.2072309353        2.3693976446       -5.2966889617
 O       -11.1175180499        2.0011309849       -4.1081515615
 C       -12.2646123333        1.7607445512       -6.1953155323
 C       -10.6554143280        3.6286169172       -7.4229012834
 C        -9.0509416040        3.2830724694       -5.4495790706
 C       -16.3044421857        4.9528085536       -6.1897416174
 C       -15.6516219014        7.3284972869       -5.5219765963
 C       -14.6123207636        3.2787702580        1.0474885137
 C       -13.0062770349        5.1528351565        0.4277148355
 C        -8.7047097087       -0.2167671455       -1.5876480384
 C        -7.6539771008       -0.3962051927        0.7188052955
 C        -6.1202675966        6.4258411655        1.8754574974
 C        -3.9177549455        5.5408607939        2.8855954790
 C        -6.5525178771        2.4405909385        9.6562092792
 C        -5.5677285801        4.9001160548        9.6675066480
 H        -4.2054909240        0.9842683360        7.9772392249
 H        -4.5549759756        1.0005044982        9.7136862912
 H        -2.8113213672        1.3159786965        8.9938771750
 H        -5.3166600323        5.6461715078        6.9946417194
 H        -7.0519332633        5.2302975666        6.5660938855
 H        -5.6011649404        3.4601592688        4.9656741908
 H        -4.3994104634        4.4888726458        5.1760156579
 H        -7.8276319653        3.7299126607        1.7228146697
 H        -7.0446900843        2.2661434382        2.1849412802
 H        -5.7453286754        2.1533708261        0.2936011811
 H        -6.5002811915        3.5542256059       -0.5427747106
 H       -11.1946486074       -0.6825214732        0.1407758484
 H       -10.9680342902        0.5219718962       -1.0142287026
 H       -12.9421208114        0.8226571781        1.2975214151
 H       -13.2501373579        1.0587789173       -0.3590710091
 H       -15.4552638208        4.8806610573       -1.4452652127
 H       -16.0568505744        3.1686127281       -1.6346256528
 H       -16.3178413355        3.9032020942       -3.7900788006
 H       -14.5753704912        3.4607334991       -3.9373920302
 H       -12.7824475665        7.1429441524       -4.6786526902
 H       -12.7932600458        7.6427097053       -6.3003341356
 H       -10.5357664749        7.1401751756       -5.6316300952
 H       -11.0017216023        6.2430717185       -6.9020651406
 H       -12.6946065573        0.8759524934       -5.6331564426
 H       -12.0697882771        1.6738209789       -7.2648512050
 H       -13.1154077688        2.4216456216       -6.1160233699
 H        -9.9510572529        4.3536378360       -7.8525549664
 H       -11.7288595157        3.7460943816       -7.7553910506
 H       -10.4101221187        2.6172229746       -7.7190658515
 H        -9.0646635975        3.0894194895       -4.3607806028
 H        -8.4169386903        4.1273260806       -5.5681471439
 H        -8.6024472938        2.3127376184       -6.0058616788
 H       -16.0324636554        3.9225551501       -6.1875767785
 H       -16.4376882615        5.3455474521       -7.1989671682
 H       -17.1817469070        5.0768671651       -5.7024125544
 H       -15.2118979870        7.9261710230       -6.3186534629
 H       -15.5177457404        7.7531602189       -4.4876974097
 H       -16.7025807862        7.2972865302       -5.4973206067
 H       -14.2227439850        3.3424384269        2.0337181591
 H       -15.1352964054        2.3800628954        0.9006602895
 H       -15.3523350618        4.0540820083        0.9375178928
 H       -13.1372985285        5.3625368599        1.4622392793
 H       -13.5544604767        5.8907396271       -0.1313152749
 H       -11.9392641585        5.2768601499        0.1273489593
 H        -9.1661058696       -1.1910671074       -1.3958956317
 H        -7.7137999368       -0.4934059609       -1.9200487459
 H        -9.2475534795        0.3801274628       -2.3549556319
 H        -7.1699814541        0.1844470029        1.4817467684
 H        -6.9615598492       -0.8835357754        0.1025521291
 H        -8.2336220644       -1.2359929192        1.1710827785
 H        -5.9687270193        7.3414245288        2.3586584998
 H        -7.2159898944        6.1714757632        1.7207724968
 H        -5.8408135493        6.5186161113        0.8391083911
 H        -3.3936588063        4.6427242593        3.0144345577
 H        -3.7989255218        6.0723737468        3.8291902979
 H        -3.4524349375        6.1420531216        2.1537558406
 H        -6.5804626202        1.5163618740        9.0669499468
 H        -7.5865367195        2.8336932188        9.8834645761
 H        -6.1286222339        2.2129792063       10.6227886771
 H        -6.1278200746        5.0083431545       10.5282969229
 H        -5.8111926749        5.7202566611        8.9918008302
 H        -4.5037368092        4.9270916624        9.8593057805
 Na      -10.3971599964        3.2747446143       -2.2009744235
