117

 C        -3.0588156764        3.0019192871        0.9372536851
 C        -4.0834904722        3.1696363494       -0.1596736035
 O        -5.0101910569        2.4138076138       -0.2441218712
 C        -3.8806991274        4.4872704178       -1.0576784118
 C        -4.9287116508        4.5956219137       -2.1292152180
 O        -6.0381561113        4.1283529907       -2.0067066515
 C        -4.4537920669        4.9895458636       -3.5867138323
 C        -4.5715493303        3.6682563521       -4.4107812186
 C        -5.3759263887        3.8050076964       -5.7092544965
 O        -5.9767030478        4.8291489121       -6.0460472874
 C        -5.8363040782        2.4601819279       -6.4397939933
 C        -6.6928971377        1.6468662966       -5.5020962154
 O        -6.0883331666        1.0967700560       -4.5814226006
 C        -8.2375494136        1.4908157748       -5.6557764594
 C        -9.0369152204        0.5363749023       -4.6636465659
 C        -8.6582297576        0.6228473862       -3.2502419122
 O        -8.4314016952        1.7363350005       -2.8374145504
 C        -8.8809598993       -0.7188317852       -2.2999761659
 C        -8.6242072947       -0.2269599112       -0.7743479599
 O        -7.5229647604        0.2791256347       -0.5986468089
 C        -9.4547373534       -0.4713756557        0.5408949377
 C       -10.9756194073       -0.0926377915        0.5614891443
 C       -11.1051743560        1.3151088131       -0.1990913473
 O       -10.8463181831        1.4704178473       -1.3365701987
 C       -11.4739803033        2.5283309249        0.6863460404
 C       -10.3062995803        3.1073185606        1.4697945102
 O        -9.2039838796        3.1288464579        1.0394524367
 C       -10.4359771819        3.8058738382        2.9278844284
 C       -11.2530145506        5.0899816392        2.8768080262
 C       -11.2326438068        5.9363113176        4.1710261325
 O       -10.4624238659        5.7452884858        5.0841997300
 C       -12.3565439613        7.0443138768        4.4448253880
 C       -13.6273299560        6.1968684344        4.7592340900
 O       -13.5715517470        5.0327016379        4.4766918856
 C       -14.7118038556        6.8697391018        5.4711775081
 C       -16.1098322026        6.2011739268        5.2513849404
 C       -16.8942067201        6.7478738207        4.0980104143
 O       -16.4768919992        7.6856531121        3.4911916104
 C       -18.4149566962        6.3379664781        3.7883281866
 C       -18.5114242942        4.7735725259        3.9684237466
 O       -18.6513803208        4.3286019526        5.0310469073
 C       -17.9288425810        3.8980370306        2.8041750447
 C       -19.2914636888        7.0277405132        4.8177677506
 C       -18.7780541829        6.6617296729        2.3079133537
 C       -11.9447399554        8.1269223035        5.4903334666
 C       -12.7266179991        7.8047592138        3.0882412689
 C       -11.6855846937        3.8236699406       -0.4628502962
 C       -12.7151985291        2.3190141778        1.6011911657
 C       -10.3482180786       -1.1217461298       -2.5958872535
 C        -7.7750812026       -1.7167918952       -2.6626795575
 C        -6.4555384819        3.0107177455       -7.8304694517
 C        -4.6065816312        1.5547686329       -6.8341861024
 C        -4.2456274842        5.7441648359       -0.2043521872
 C        -2.4199845826        4.4334822524       -1.4615366415
 H        -3.6410118465        2.7373168720        1.8968643762
 H        -2.4189636038        3.7714907391        1.0862905205
 H        -2.6311910901        2.0362650459        0.7238499149
 H        -3.4530782519        5.4315929721       -3.6089307206
 H        -5.1118098442        5.6978540852       -4.0954481593
 H        -5.0082857797        2.8508909455       -3.8882675018
 H        -3.5967712740        3.4063659784       -4.6681982502
 H        -8.2886607497        0.9991659907       -6.7023396534
 H        -8.7448526440        2.5129706339       -5.6563865954
 H        -9.1739526206       -0.4799526414       -4.9598628896
 H       -10.1060844220        0.8430777460       -4.6531617269
 H        -8.7617518370       -0.0184015129        1.3068851299
 H        -9.4061524527       -1.5735854424        0.5182137531
 H       -11.4150719176       -0.1013039048        1.5801344809
 H       -11.4311410982       -0.8450039747       -0.0240420669
 H        -9.3475774766        4.0667881377        3.2287788208
 H       -10.9564116430        3.2844709968        3.8240281126
 H       -12.3499280625        5.0794591392        2.6354458044
 H       -10.8023823166        5.7218263153        2.0349977169
 H       -14.6220647927        7.9326877283        5.3458574634
 H       -14.5266856996        6.6791244560        6.5112950572
 H       -16.7636533592        6.4582498820        6.0829152844
 H       -16.1123139812        5.1319807680        5.1872560462
 H       -18.1969179973        4.2127054884        1.7995804497
 H       -17.9874885812        2.8139377191        2.9431195680
 H       -16.8785716393        4.1280109913        2.8409412856
 H       -20.2780107789        6.8216882031        4.8282313957
 H       -19.0953389966        8.0998843016        4.7949324427
 H       -18.9338077951        6.6679418333        5.7747070181
 H       -19.7348996255        6.1357482235        2.1891896468
 H       -18.0707636141        6.6126774128        1.5546564668
 H       -19.1174614404        7.7681107331        2.2517607816
 H       -12.6758866057        8.9450246512        5.5000623164
 H       -11.1427108633        8.6744232870        4.9627890267
 H       -11.8216847792        7.8348257126        6.4887471793
 H       -13.7227839398        8.2422296333        3.2279109100
 H       -12.8091820884        7.0879191174        2.2031848004
 H       -11.8369128218        8.3864423967        2.7622719866
 H       -10.7253132619        4.3757277803       -0.5133594916
 H       -12.5369939447        4.2725614247        0.0045957311
 H       -12.0927791385        3.4563818500       -1.3700564173
 H       -13.5988856422        2.3077376510        1.0503960213
 H       -12.8637154409        3.2658108453        1.9948728410
 H       -12.5597875281        1.5494300083        2.2791549957
 H       -10.4917098568       -2.1543970452       -2.1471290955
 H       -10.6228327907       -1.3080719383       -3.5362662641
 H       -10.9979113172       -0.3586059194       -2.3190425028
 H        -6.8747020981       -1.2402664678       -2.2650872218
 H        -7.5262749781       -1.8014802514       -3.7872112096
 H        -7.9951079854       -2.6559132701       -2.1758595575
 H        -7.5700215799        2.8651367946       -7.8541394840
 H        -5.9885783413        2.3941842600       -8.6397832757
 H        -6.2634122083        4.0836071861       -8.0817216514
 H        -4.1733968961        1.1418016103       -5.9136833434
 H        -3.8586767604        2.1703403203       -7.2810233676
 H        -4.8861947286        0.7135411314       -7.4000099979
 H        -3.5118257034        6.3321509095        0.2517276517
 H        -4.7394522672        5.3356573138        0.7236433896
 H        -4.8468505081        6.3900236097       -0.8203531064
 H        -2.2651946427        3.3436545054       -1.5852855519
 H        -1.6551206011        4.6237028432       -0.7703504200
 H        -2.1983879884        5.0608418821       -2.4020818449
 Na       -7.4454198286        2.6432323298       -0.8454459268
