117

 C        -3.8818249813        3.1778157922        1.3505948275
 C        -4.4753519917        3.1238052597       -0.0317123738
 O        -4.9769380763        2.0655579276       -0.4830963240
 C        -4.3406148544        4.4105101481       -0.9710002994
 C        -5.2438487880        4.3597017891       -2.2624072276
 O        -6.3889636844        4.0083673998       -1.8885920281
 C        -4.8582643397        4.8273743232       -3.6092785306
 C        -4.5492574712        3.6333098741       -4.5250501032
 C        -5.6231656944        3.5674450305       -5.7551580150
 O        -6.1830754600        4.5796236823       -6.1076618561
 C        -5.9831809216        2.1410284010       -6.3181881207
 C        -6.8058259309        1.4170588961       -5.1679074421
 O        -6.2221612420        0.6251254538       -4.4870364212
 C        -8.2724315859        1.7758321141       -4.9860955198
 C        -8.9582275425        0.5043155205       -4.3696202569
 C        -8.6867723807        0.3691082173       -2.8560469452
 O        -8.5098403793        1.4148953547       -2.2049644827
 C        -8.7826710517       -0.9045834995       -2.0622604907
 C        -8.6278563656       -0.5587390908       -0.5136393368
 O        -7.8567505579        0.1460436835       -0.0163625969
 C        -9.8188834397       -1.0472753833        0.4232391632
 C       -10.6648969811        0.1629793463        0.9693846787
 C       -10.9620598495        1.2330917159       -0.1721801558
 O       -10.9034240222        1.1419744498       -1.4269706562
 C       -11.1408566601        2.7485943457        0.4250718336
 C        -9.9801787306        3.0144877556        1.5332241275
 O        -8.8867935728        2.5253188077        1.3326744709
 C       -10.3824027245        3.8610023333        2.8086199157
 C       -10.8886263002        5.2551263558        2.3671179481
 C       -10.7410977967        6.2489839322        3.6454784557
 O        -9.6820844666        6.6224299959        4.0581852095
 C       -12.0655360728        7.1887548353        4.0310864461
 C       -13.2726122806        6.4843793679        4.6070100429
 O       -13.2916329347        5.2573388165        4.7027811895
 C       -14.6242587894        7.2298441804        4.9711633782
 C       -16.0561902180        6.5037327265        4.9096037262
 C       -17.0071818451        7.2206184043        3.7919819627
 O       -16.6493037486        8.2333425712        3.2951831411
 C       -18.4345897137        6.7011147406        3.6295339521
 C       -18.4611846900        5.1859816638        3.9015494534
 O       -18.9762315386        4.7719037428        4.9716371521
 C       -17.7176355851        4.0987407823        3.0199271815
 C       -19.3560422150        7.5433806146        4.5530521403
 C       -18.8507342349        7.0024331926        2.1776113482
 C       -11.5176287996        8.4470620741        4.8890594387
 C       -12.6782564721        7.7174966178        2.7358246899
 C       -10.9821044488        3.8819526132       -0.7027327668
 C       -12.5016613455        2.7437772985        1.0568720409
 C       -10.1024859043       -1.6434683890       -2.5065712624
 C        -7.5713320684       -1.8036961225       -2.4495984047
 C        -6.7576062111        2.3934006686       -7.6449537935
 C        -4.8074265348        1.2432634215       -6.5424259430
 C        -4.7940464844        5.6820753128       -0.1761779984
 C        -2.7599865592        4.3482515317       -1.0430178622
 H        -4.4189285217        2.4777859540        1.9084904514
 H        -4.0407903843        4.1423767754        1.9102610811
 H        -2.8148011792        2.9434484229        1.3614727358
 H        -4.0383092469        5.5660527852       -3.4328946944
 H        -5.6394829118        5.3879326582       -4.0648312922
 H        -4.8168400830        2.8468456469       -3.8932517941
 H        -3.5556274059        3.6155192202       -4.9113694802
 H        -8.7504996657        2.0098654283       -5.9091482874
 H        -8.2698603125        2.7071880650       -4.2992440310
 H        -8.8259064227       -0.4766123772       -4.8987150630
 H        -9.9881705154        0.6878291814       -4.3881971389
 H        -9.3920818727       -1.5082467393        1.3066250810
 H       -10.5091263924       -1.7721380192       -0.0732771527
 H       -10.0302184214        0.5280265329        1.7295149908
 H       -11.6392290770       -0.1764758829        1.3100538318
 H        -9.5170473749        3.8981865948        3.5758295970
 H       -11.2022652336        3.2811535108        3.3796797284
 H       -11.9497971766        5.1848048390        2.2274152699
 H       -10.3068817196        5.7826198078        1.5124162618
 H       -14.6126538631        8.2409439826        4.6107713383
 H       -14.3675540438        7.2822289517        5.9807734729
 H       -16.6704686151        6.7078351017        5.7743873695
 H       -15.9994244425        5.4309356195        4.8091827493
 H       -18.2036498887        3.7487464524        2.1360531963
 H       -17.1106452161        3.3285548380        3.5098673493
 H       -16.8511438423        4.6741703025        2.6762748503
 H       -20.3490585326        7.0456538331        4.5846969533
 H       -19.4204179538        8.4871921392        4.1302260731
 H       -19.0072145676        7.5687898200        5.5255968012
 H       -19.8625853771        6.6400421689        2.0055474320
 H       -18.1516164964        6.3119892227        1.5845126113
 H       -18.8276345860        7.9898051992        1.9259332131
 H       -12.2124813068        9.2702924888        4.8700780866
 H       -10.5423607322        8.6616594834        4.4909387518
 H       -11.3385129869        8.1513375058        5.9643414519
 H       -12.8637093115        8.8185371098        2.7635057911
 H       -13.5933523720        7.1085865987        2.6378356208
 H       -12.0110545996        7.7235950146        1.8630374438
 H       -10.1707164117        3.4548736993       -1.2552710069
 H       -10.6730350169        4.8489772211       -0.2747438613
 H       -11.9519442066        3.9258715305       -1.2567461441
 H       -13.1293557762        2.0489699084        0.5529740791
 H       -12.9446849874        3.7326861912        1.0326581892
 H       -12.4722745045        2.4315818469        2.0890707345
 H        -9.8714663059       -2.6191805348       -2.5975398969
 H       -10.2539059319       -1.2264865608       -3.5589284104
 H       -11.0434519127       -1.4775098634       -1.9385864970
 H        -6.6771853456       -1.1724646059       -2.6359665189
 H        -7.9580239355       -2.3867050909       -3.2561355554
 H        -7.2758909632       -2.5392584070       -1.6206371654
 H        -7.4182427261        3.3087102218       -7.5544338049
 H        -7.4169524093        1.5892736531       -8.0267669683
 H        -5.9436117996        2.6597960334       -8.3621993415
 H        -4.2272825357        1.0850805850       -5.6762006346
 H        -4.1629010421        1.5232405430       -7.3746992768
 H        -5.3262887548        0.3048206699       -6.8845171257
 H        -4.5029543378        5.5055011262        0.9156403179
 H        -5.8258333530        5.9588757286       -0.2873687876
 H        -4.1327714688        6.5003596946       -0.5797444299
 H        -2.3865786778        3.4296374977       -1.5388287301
 H        -2.3407341723        4.5407490126        0.0526771675
 H        -2.4755514393        5.1606218344       -1.6984103309
 Na       -7.3147897592        2.3370634291       -0.4568450530
