117

 C        -4.2998738485        3.4173221597        1.5800365146
 C        -4.7597485419        3.0779563896        0.1971047471
 O        -5.3173648371        1.9728758134       -0.1343503882
 C        -4.6089292604        4.2540413062       -0.7505174030
 C        -5.5853922992        4.1687872856       -2.0195753204
 O        -6.7505748074        3.7473279554       -1.7870852248
 C        -5.3530515819        4.5746075669       -3.3676421517
 C        -4.8955146756        3.4765209130       -4.3416586837
 C        -5.9625052504        3.2835907735       -5.5192971713
 O        -6.6023427500        4.2398778916       -5.8826289389
 C        -6.0510031402        1.8931110380       -6.1479496258
 C        -6.8732817770        1.0744084131       -5.1635466864
 O        -6.2805378437        0.3263613499       -4.4221856867
 C        -8.4358607591        1.5107723124       -4.9217733296
 C        -9.3066256563        0.5299161538       -3.9802352078
 C        -8.7038027733        0.4219378387       -2.6708377363
 O        -8.0983226434        1.4168709005       -2.2631127733
 C        -8.6419348965       -1.0463034151       -1.9306476267
 C        -8.7790742473       -0.8945284808       -0.4048846361
 O        -7.9978935303       -0.3095033879        0.2723573023
 C       -10.2937610323       -1.2572380715        0.3674007932
 C       -10.5514702379        0.1233519036        1.1364992765
 C       -10.7805368965        1.1030952613        0.1376695684
 O       -11.1116279542        0.7488591880       -1.0264648250
 C       -10.8519857409        2.7563439640        0.3660389164
 C        -9.8545711045        3.3163327831        1.3814472512
 O        -8.6540255680        2.9703069650        1.3280096874
 C       -10.0641143092        4.4260700531        2.4650715541
 C       -11.1901750728        5.4495318406        2.2340086678
 C       -10.9091716466        6.5514429971        3.1789431561
 O        -9.8624676396        6.5955397789        3.8196143752
 C       -12.0443992218        7.6593333603        3.5184356373
 C       -13.1573045048        6.7473241635        4.2203111507
 O       -13.1504580656        5.5570327227        4.2806989450
 C       -14.3981289922        7.5517450525        4.6904438491
 C       -15.6432008390        6.7104399527        4.5255518794
 C       -16.6279248338        7.4962162364        3.6704163106
 O       -16.2552757783        8.3304293244        2.9143457120
 C       -18.0701676122        6.9962749628        3.6273695257
 C       -18.3169808697        5.3975838498        4.0135248310
 O       -18.9449761649        4.9868522991        4.9779262602
 C       -17.7727119190        4.3676030213        3.0252797067
 C       -18.7358036871        7.8618499513        4.6531701366
 C       -18.6344707301        7.1917273618        2.1106352109
 C       -11.6445143731        8.6860931596        4.6212105376
 C       -12.4345688740        8.3977028334        2.1708019361
 C       -10.3997274827        3.4412740973       -1.0323279151
 C       -12.3213473311        3.0050021135        0.7117675502
 C        -9.6641057253       -2.0429370070       -2.5922634002
 C        -7.1127240998       -1.4782603076       -2.1971086279
 C        -6.7345302423        2.1655098865       -7.5559177490
 C        -4.6550387392        1.1119036748       -6.3708453108
 C        -5.0637977120        5.5347350871       -0.1505093776
 C        -3.0273368514        4.1956925365       -1.0816706048
 H        -4.5644710125        2.7090698184        2.4621919470
 H        -4.8009753925        4.2869442694        1.8489703862
 H        -3.2882763357        3.7594237237        1.5576812105
 H        -4.4834802706        5.3915384884       -3.5431770713
 H        -6.2261222816        4.9120669377       -3.8497040402
 H        -5.0634662359        2.5982920667       -3.8258063364
 H        -3.9304800732        3.6242343215       -4.7549296931
 H        -8.9158580080        1.4236770556       -5.9663159514
 H        -8.4373463791        2.5827718450       -4.5930469473
 H        -9.2598624005       -0.5633620239       -4.3543750573
 H       -10.3441417794        0.7796060430       -3.7524836339
 H       -10.2015908209       -2.1433217144        1.0427234999
 H       -11.3354146442       -1.4143101232       -0.0738097034
 H        -9.7141008424        0.4562149545        1.6874995555
 H       -11.4391002755       -0.0533404868        1.7450630188
 H        -9.1445904490        5.0029983435        2.1529718261
 H        -9.6961550730        3.9899323573        3.4971526244
 H       -12.1416624706        4.9617821484        2.4265329399
 H       -11.0953382534        5.9365259886        1.2253386574
 H       -14.3349713230        8.4678825692        4.0938344286
 H       -14.2890872616        7.8333591118        5.7549094816
 H       -16.0470343362        6.4579196270        5.5349696166
 H       -15.5681442664        5.7639619564        3.9388300713
 H       -17.7707933556        4.5476060901        2.0359014512
 H       -17.9994169988        3.2972464309        3.0494344036
 H       -16.7836846959        4.3843709186        3.3335241164
 H       -19.8616601050        7.8327086303        4.4939135148
 H       -18.4046322275        8.7897925320        4.3067079041
 H       -18.3776433314        7.7034939171        5.6657373302
 H       -19.6530339834        6.6326476652        2.0240566370
 H       -18.0135285165        6.5916904726        1.3970376218
 H       -18.6088171616        8.2730221274        1.8771945321
 H       -12.4101098717        9.3063843133        5.1337653783
 H       -10.7975012714        9.2818175257        4.3321352210
 H       -11.0409531420        8.0671764703        5.3489313268
 H       -13.5738508588        8.5811158918        2.0416939409
 H       -12.1347927924        7.8807137859        1.3106206884
 H       -11.9936916426        9.4674598163        2.2924935382
 H        -9.4045865698        3.7999210523       -0.9357922343
 H       -11.0495781275        4.2948953812       -1.0898986866
 H       -10.5096669922        2.6356371801       -1.7704808498
 H       -12.8360584888        2.3432603456        0.0656144555
 H       -12.5312619378        4.1044075424        0.6306304739
 H       -12.6742322422        2.7303571443        1.7105520759
 H       -10.1360714713       -2.5359375853       -1.7945062008
 H        -9.1098455464       -2.6816039912       -3.2271391694
 H       -10.5116491800       -1.5146369788       -2.9652843999
 H        -6.5991249861       -1.1358505276       -1.2951073791
 H        -6.8058355074       -1.1149509997       -3.1344183622
 H        -7.1243819588       -2.5841918154       -2.2938076907
 H        -7.5606868689        2.9141217510       -7.4273143883
 H        -7.2491703283        1.1883835459       -8.0212322445
 H        -6.1171419254        2.6136746954       -8.3525227257
 H        -4.2536315616        0.7293332950       -5.4130576401
 H        -3.9808953970        1.8197648686       -6.8926622042
 H        -4.7203101402        0.2429427409       -7.0770583507
 H        -4.2521006424        6.0398917156        0.2444530870
 H        -5.8649167951        5.3154953214        0.4239757431
 H        -5.6279739859        6.1792679873       -0.8282226202
 H        -2.6457656367        3.2851128712       -0.5029975763
 H        -2.6396441710        5.1960377032       -0.8433301838
 H        -2.9358156984        3.7722087434       -2.1149310429
 Na       -7.5216493716        1.8218799010       -0.1119636003
