117

 C        -4.4213307312        3.4293896798        1.7643849976
 C        -4.8662676684        3.0777351721        0.3573212938
 O        -5.2771974929        1.9818278639        0.0371248761
 C        -4.6338177941        4.1873468884       -0.6992240965
 C        -5.7306683692        3.9912489018       -1.9433465402
 O        -6.7628554782        3.6263587948       -1.4975390980
 C        -5.3359038857        4.6513786589       -3.2607030376
 C        -5.0719922437        3.5590387331       -4.3511356674
 C        -6.0080259360        3.3507480432       -5.5812975022
 O        -6.7853974710        4.1895239029       -5.9330239846
 C        -6.0712724997        1.9476320751       -6.2357334085
 C        -7.0147791538        1.0296710829       -5.2112139588
 O        -6.4377755043        0.2279949890       -4.5126270342
 C        -8.4504479637        1.2447918772       -5.0410266296
 C        -9.1845921283        0.3319095727       -4.0954777661
 C        -8.5504610725        0.3655823126       -2.6352406077
 O        -8.1302469290        1.3453603003       -2.1577464730
 C        -8.6412574203       -1.1094512060       -1.8451163908
 C        -8.9795472375       -0.8616501678       -0.3582348856
 O        -7.9843186723       -0.4705034819        0.2606676183
 C       -10.1280625049       -1.2692261608        0.4661635727
 C       -10.5784185775        0.0739340483        1.1856471631
 C       -10.8492883011        1.1851520627        0.0268883229
 O       -11.1233903612        0.7996962777       -1.0527961298
 C       -10.7427581417        2.7472780277        0.1988075290
 C        -9.7617604087        3.3591172459        1.3837648928
 O        -8.5333701673        2.9524089636        1.3810823186
 C       -10.1227726921        4.5410922878        2.4076906243
 C       -11.2071455575        5.5525026308        2.1039261681
 C       -10.8499617810        6.7097103663        3.1688712017
 O        -9.8231194446        6.7538136032        3.8295780493
 C       -11.9561641245        7.7553126724        3.5382373318
 C       -13.2214510664        6.9379909155        4.0709139656
 O       -13.2059645289        5.7394952014        4.0668443049
 C       -14.3557325018        7.6785747875        4.7414015246
 C       -15.6075351122        6.7645222297        4.6326487181
 C       -16.5215513351        7.2481148661        3.4798657723
 O       -16.2491278043        8.2852177652        2.8421988956
 C       -18.1571037663        6.9331250237        3.5106928243
 C       -18.3782799977        5.4994854371        3.9871703935
 O       -18.8371116578        5.1735077460        5.0121875542
 C       -17.7287741041        4.3409753307        2.9741477765
 C       -18.6468949255        7.9835391620        4.5981260566
 C       -18.7075028208        7.3754834516        2.1522275766
 C       -11.3538580931        8.8691951761        4.4173254632
 C       -12.4547774136        8.5134222714        2.2736580617
 C       -10.4223818934        3.4912370167       -1.0518323597
 C       -12.2747472841        3.0727708902        0.5481680217
 C        -9.4733671474       -2.2233050892       -2.4889435581
 C        -7.1580236288       -1.6088224232       -2.0852575533
 C        -6.7769588561        1.8803997753       -7.5855869986
 C        -4.6937668871        1.1698864304       -6.3024724353
 C        -4.9725308352        5.6203993533       -0.0973807856
 C        -3.0772318439        4.2204670928       -1.1005064436
 H        -4.3908975601        2.5309018685        2.3949255115
 H        -5.0477323513        4.1212114975        2.2863007188
 H        -3.4709994069        3.9713151840        1.6784869732
 H        -4.4272375137        5.2770817453       -3.2556789631
 H        -6.1411555854        5.1686573096       -3.6819266793
 H        -5.1671631474        2.6392635898       -3.8483757880
 H        -4.1310447600        3.6644027271       -4.8512634254
 H        -8.9789648273        1.3479270654       -6.0201454512
 H        -8.4570907846        2.1664881766       -4.5969387969
 H        -9.2693804059       -0.6483211256       -4.3977455510
 H       -10.1842480801        0.7411191915       -3.9024583494
 H        -9.8807651464       -2.1791879500        1.0660576869
 H       -11.0090784321       -1.5690118450       -0.1131127734
 H        -9.8644805292        0.3929359324        1.9401210727
 H       -11.5575416583       -0.1977128772        1.5967377457
 H        -9.1659761826        4.9832386352        2.7692124371
 H       -10.4214804692        3.8285194048        3.2654278172
 H       -12.0837590351        4.9364695627        2.5682419852
 H       -11.3749046633        5.8779163236        1.0589910016
 H       -14.3515007739        8.5984403484        4.3266313095
 H       -14.0437718651        7.7853631352        5.7618774350
 H       -16.1689785937        6.8136415809        5.5480821642
 H       -15.3912343847        5.7215780487        4.4005458076
 H       -17.8792815631        4.5395130893        1.8377453790
 H       -18.2158830012        3.3695616737        2.9401616140
 H       -16.6607944843        4.1093740552        3.0448100462
 H       -19.6460411747        7.9053863864        4.6881320552
 H       -18.4075053614        8.9265739786        4.1442249974
 H       -18.0609236761        7.8841654610        5.5012418761
 H       -19.7054975241        7.0474307723        2.0325706633
 H       -18.1611909538        7.0057198417        1.3745094072
 H       -18.5406507464        8.4931099571        2.1959149698
 H       -12.1197226474        9.6237825358        4.7854845487
 H       -10.5457682068        9.3807213511        3.8692658661
 H       -10.7715045248        8.5234974816        5.2555165816
 H       -13.5744209977        8.3967707099        2.3113653276
 H       -12.1421843376        8.1940226313        1.2356692499
 H       -12.3403221018        9.6327162706        2.4523299112
 H        -9.3394621023        3.6133877838       -1.2140225113
 H       -10.8887359253        4.4572328223       -0.9696146744
 H       -10.8430924271        2.7379127803       -1.7324323378
 H       -12.9304368411        2.2802374111        0.2536283021
 H       -12.5393263069        4.0564471489        0.1827038602
 H       -12.4296877481        3.1879347160        1.5895359094
 H        -9.3649725777       -3.0671656108       -1.6406813722
 H        -8.9664689307       -2.5010582571       -3.3415839344
 H       -10.5315305880       -2.0303314817       -2.4009767997
 H        -6.4705698973       -0.9210474636       -1.5391193297
 H        -7.1174633822       -1.5944022073       -3.2232739446
 H        -7.1072033333       -2.6581301506       -1.7894985133
 H        -7.4955230948        2.7286734408       -7.6773089896
 H        -7.2356719275        0.9626335331       -7.9979287756
 H        -5.9827830527        2.1837580698       -8.3042622870
 H        -4.6369855386        0.8391830160       -5.2271511587
 H        -3.7914119260        1.6719927489       -6.6832887855
 H        -4.7616392747        0.2664759742       -6.8249636357
 H        -4.2362067695        5.8266755716        0.6827596569
 H        -6.1192596694        5.5328928149        0.1175953173
 H        -5.0080426817        6.4635893462       -0.7763579288
 H        -2.5046780806        3.6138565636       -0.3322243322
 H        -2.9394130922        5.2542775242       -1.0634972869
 H        -2.8814931231        3.7069562738       -2.0962151381
 Na       -7.5173210444        1.5672193177       -0.1218128209
