117

 C        -4.5050790892        3.3502764026        1.9927482721
 C        -4.8166647408        3.0965656815        0.5160475610
 O        -5.2120094321        2.0096963337        0.2449481017
 C        -4.6562677859        4.2506923952       -0.6255828898
 C        -5.7452747461        4.0408396818       -1.7102112083
 O        -6.8159342815        3.5289325888       -1.5127252120
 C        -5.4431304467        4.5706550293       -3.1785525288
 C        -5.1354219701        3.4525636342       -4.3178458753
 C        -6.1462484857        3.3846385427       -5.5202141062
 O        -6.9415347887        4.1983249871       -5.9456765279
 C        -6.1694521632        1.8038482823       -6.2004350875
 C        -7.0348414739        0.9620838129       -5.1748527301
 O        -6.5395251280        0.0617592083       -4.5344304413
 C        -8.5625928513        1.2515849942       -5.1506108532
 C        -9.1321226893        0.1982730381       -4.2562433223
 C        -8.6932225702        0.0882628306       -2.6936835059
 O        -8.2532462212        1.1170751271       -2.1934605710
 C        -8.5270679735       -1.2464740580       -1.9198095639
 C        -8.7883847153       -0.9547870433       -0.2506410902
 O        -7.8471909978       -0.5592501869        0.4697385990
 C       -10.1456661591       -1.1491414498        0.4574523123
 C       -10.6715394839        0.1594197840        1.0547798603
 C       -10.7449065823        1.2503403470       -0.0343732430
 O       -11.0734508077        0.8346471888       -1.0891915832
 C       -10.7250223377        2.8247845241        0.2490459256
 C        -9.7746845340        3.3784589013        1.2697200963
 O        -8.6092911433        2.9407260252        1.4043906895
 C       -10.1757750015        4.3897834551        2.3129129779
 C       -10.9856898291        5.6953878568        2.1321653604
 C       -10.8117860205        6.8237784219        3.1852393788
 O        -9.7405743115        6.8214432220        3.7167124748
 C       -11.9643896072        7.9317890490        3.4670363461
 C       -13.1349570357        7.1192152290        4.1414124491
 O       -13.1989639292        5.9157723282        3.8322979112
 C       -14.4030773041        7.7515478597        4.8577417042
 C       -15.6945803311        6.8978905806        4.7191427336
 C       -16.5548465650        7.4114037247        3.5121543388
 O       -16.0896841620        8.1270925804        2.6389454307
 C       -18.0635254922        7.0345038254        3.4297054094
 C       -18.2957891795        5.5433774176        3.8536027639
 O       -18.7279379407        5.3139000348        4.9687384719
 C       -17.8471600922        4.4621973023        3.0334592459
 C       -18.6582037516        7.9798383324        4.6404771311
 C       -18.7711261651        7.4212447906        2.1564971456
 C       -11.1866383901        8.9052210778        4.3558673591
 C       -12.6231407043        8.6009749866        2.1476539117
 C       -10.3554443593        3.4942404509       -1.1311231024
 C       -12.2786726166        3.1646272879        0.5985076077
 C        -9.5414174923       -2.3488223258       -2.4363909818
 C        -7.0656542163       -1.6776169992       -1.9213945937
 C        -6.7686610234        1.7055471256       -7.6288866812
 C        -4.7176106296        1.3155135042       -6.2612820636
 C        -4.9294979188        5.6861620653       -0.0555615569
 C        -3.1828394321        4.1903619343       -1.2111317424
 H        -4.3386553359        2.4094328370        2.3229846386
 H        -5.4036314025        3.6807893210        2.6357156265
 H        -3.7039499711        4.0624255708        2.2488868741
 H        -4.6902428168        5.1762065349       -3.2938720979
 H        -6.4104894166        5.0204329708       -3.5756529440
 H        -4.9460716736        2.4153502176       -3.8985246138
 H        -4.3188116647        3.8143891241       -4.9736506824
 H        -8.9260352969        1.0287753693       -6.0869234719
 H        -8.8522411189        2.2768604420       -4.9737624555
 H        -8.7672088467       -0.6951916077       -4.6785912806
 H       -10.2126820407        0.2253756924       -4.2902849667
 H        -9.9502849198       -1.8105834213        1.2895102621
 H       -10.7884021400       -1.7468620984       -0.1545555493
 H        -9.7812587536        0.2614205616        1.7289156453
 H       -11.6558096956        0.1143631753        1.5425496995
 H        -9.2136322688        4.6405305032        2.7577292592
 H       -10.5201339388        3.6308469217        2.9353480019
 H       -12.0013446784        5.4214385320        1.8482835382
 H       -10.4382907608        6.1592137411        1.2815099572
 H       -14.4228683343        8.7354462342        4.3776200869
 H       -14.1677073650        7.8684835466        5.8751947582
 H       -16.2149902503        6.9952540419        5.6394643748
 H       -15.5209703100        5.8598203654        4.5112167756
 H       -18.0332495890        4.6479414877        1.9205863068
 H       -18.4779907485        3.5698266014        3.0864559418
 H       -16.7312109655        4.1112021290        3.0529742052
 H       -19.6694562139        7.6352629660        4.6665720561
 H       -18.6543028802        9.0398662206        4.3928501273
 H       -18.0722748543        7.7753268206        5.4906222320
 H       -19.7563768828        7.2418173518        2.3785767514
 H       -18.4605570187        6.8599769576        1.2841568664
 H       -18.5418570151        8.4111232866        1.9823380723
 H       -11.9063318464        9.6792345223        4.5624712808
 H       -10.2701579591        9.3726043925        3.9484621259
 H       -10.8922301802        8.5130182949        5.3060901565
 H       -13.6422052201        8.2678932055        2.0819538357
 H       -12.0979095226        8.2084352276        1.1657188663
 H       -12.5882943483        9.6610333085        2.1716271745
 H        -9.4164801374        2.9851928234       -1.4733271100
 H       -10.1673419265        4.5684518291       -0.9860488477
 H       -11.1096510284        3.0673072729       -1.7663144468
 H       -12.9254592146        2.3748106087        0.1470875481
 H       -12.5300315414        4.0848856327        0.1619893587
 H       -12.5720380960        3.2749684321        1.6235222265
 H        -9.1392307688       -3.2935642832       -2.1175700266
 H        -9.4837040792       -2.3069052084       -3.5850218366
 H       -10.4824600500       -2.2779083025       -1.8645983532
 H        -6.4671935389       -0.7687375716       -1.7272789551
 H        -6.8299992696       -2.2554437873       -2.8542167257
 H        -7.0666929568       -2.3611996415       -1.0543381100
 H        -7.5034985559        2.4880507977       -7.7519328879
 H        -7.1359111145        0.8409289386       -8.0179235820
 H        -5.9403933429        2.0254965941       -8.2926912989
 H        -4.3785329742        1.0960452631       -5.2827928703
 H        -4.0854060473        2.0271191860       -6.7754263893
 H        -4.6428945551        0.3685311198       -6.7788146407
 H        -4.4484429677        5.7072349611        1.0044062559
 H        -6.0021613855        5.9646963912       -0.2548827881
 H        -4.3863033863        6.5038027327       -0.5801501844
 H        -2.5760016841        3.9876223070       -0.3771117377
 H        -3.0215095980        5.2069175063       -1.5979137851
 H        -3.1136321875        3.4129501290       -1.9231293660
 Na       -7.4104505181        1.4780312393       -0.0781749364
