117

 C        -4.5513726869        3.7278107129        2.0688121318
 C        -4.8389245442        3.1406719836        0.6644920272
 O        -5.0386851200        1.9949087712        0.4109411708
 C        -4.8052995098        4.1763482000       -0.5241718976
 C        -5.9766401773        3.9093114099       -1.6005233752
 O        -6.9204791892        3.2540817930       -1.3207215019
 C        -5.8784161384        4.5426314400       -2.9879673567
 C        -5.6262096762        3.2843051865       -3.8279881698
 C        -6.4309237491        3.1141471340       -5.0096200537
 O        -7.1701913388        3.9488878041       -5.4415326241
 C        -6.3077210505        1.7755701700       -5.9018048087
 C        -7.0183325524        0.5528360679       -5.0598550968
 O        -6.3225731260       -0.3160837058       -4.5724611206
 C        -8.5074434914        0.5749373025       -5.0457661106
 C        -9.0384271024       -0.4910934362       -4.0704040837
 C        -8.7390185836       -0.3001237730       -2.5381681526
 O        -8.3596170003        0.7384283144       -2.0947139649
 C        -8.5686891127       -1.6552331444       -1.7041247656
 C        -8.7427212040       -1.1947929328       -0.1925718368
 O        -7.7545977680       -0.7170405350        0.3973011992
 C       -10.1112885780       -0.8779958277        0.2652899937
 C       -10.3449101403        0.4857737746        0.9913093119
 C       -10.6933898794        1.4922487383       -0.3302209103
 O       -10.8898358527        1.1265866328       -1.4029654853
 C       -10.8429836301        3.0077273839        0.0474540243
 C       -10.0085464406        3.5090987692        1.2935752088
 O        -8.8338789783        2.9652337363        1.3083345865
 C       -10.5396590006        4.6238242683        2.3258418892
 C       -10.4649363115        5.9971045093        1.7482454003
 C       -10.4877372268        7.0082954084        2.9496778196
 O        -9.5569036797        7.1641624437        3.7174877637
 C       -11.8916420796        7.7647892009        3.1963579846
 C       -13.2215963810        7.1030030637        3.7370030366
 O       -13.3452958597        5.9028284815        3.5660442324
 C       -14.1285469468        8.0299008741        4.5403053602
 C       -15.5693015260        7.6763624745        4.7657807759
 C       -16.3936460811        7.5065914341        3.5053646627
 O       -15.9174194260        7.6207199676        2.3501462858
 C       -17.8856789756        7.3038657919        3.5488962318
 C       -18.2120693475        5.7299566821        3.9136349616
 O       -18.3472671118        5.5438205372        5.0728050718
 C       -17.8779300683        4.7196870516        2.8303833907
 C       -18.5790654825        8.2970076815        4.5739358243
 C       -18.4510439201        7.7305981384        2.1220908590
 C       -11.5442680448        8.9058431835        4.1531946806
 C       -12.2526061311        8.5156581306        1.7517001830
 C       -10.4822073649        4.0228958798       -1.1823158904
 C       -12.4777379808        3.2132116649        0.2610544218
 C        -9.3422623609       -2.9114257732       -1.9401131746
 C        -7.0948283462       -2.0141281458       -2.0397780489
 C        -6.9954321238        2.0461972472       -7.2535392985
 C        -4.9200698322        1.2506462005       -6.1100809395
 C        -4.9096662140        5.7999219026       -0.2320262687
 C        -3.4247716917        3.8659704944       -1.0694959496
 H        -4.0957619978        3.1257080471        2.7240126610
 H        -5.5180070007        4.0181920415        2.5574593318
 H        -3.9995615299        4.6990681204        2.0289032231
 H        -5.1976032296        5.2042950317       -3.2230248373
 H        -6.9431958895        4.8821971138       -3.0720258768
 H        -5.5474637165        2.4802416247       -3.1715064980
 H        -4.7028930326        3.3887540980       -4.3667435943
 H        -8.9985691578        0.4003774492       -6.0340228907
 H        -8.8178414164        1.5951938150       -4.8149616106
 H        -8.5993472971       -1.3928692950       -4.3581637762
 H       -10.1698556809       -0.4735284680       -4.2070345732
 H       -10.3721819732       -1.7404830834        0.9762677375
 H       -10.8817603872       -1.1197509549       -0.4673687143
 H        -9.3773009733        0.8132824617        1.3724837952
 H       -11.0632180185        0.3118906387        1.7856106945
 H        -9.8737920268        4.4880470572        3.2511756901
 H       -11.6385564655        4.4490970209        2.6423475806
 H       -11.2873897340        6.1446728737        0.9306819863
 H        -9.5295409608        6.1998649449        1.1704000393
 H       -13.9445798392        8.9669841531        4.1109650362
 H       -13.4724241409        7.9322821511        5.4237462092
 H       -16.0556486217        8.4883594449        5.3345212971
 H       -15.6041938033        6.6602257996        5.2692534154
 H       -18.3661119420        5.0823812123        1.9111419277
 H       -18.2346990460        3.7689448148        2.8678452239
 H       -16.8664155222        4.7309592946        2.4847413665
 H       -19.6078791544        8.2105232380        4.5356137384
 H       -18.2251250866        9.3310075009        4.3600799159
 H       -18.0450579611        7.9987559051        5.4700427124
 H       -19.4973252677        7.4527070283        2.3015595815
 H       -17.9414837892        7.3189683658        1.1925165900
 H       -18.2939319037        8.8485243409        2.0184630651
 H       -12.2080194659        9.7922621648        4.2653637922
 H       -10.7158402263        9.4273312500        3.5910919743
 H       -11.2450900553        8.6251822936        5.1550613749
 H       -12.6160423936        7.7603738320        1.0707020241
 H       -11.3820508642        9.1964909900        1.3502412682
 H       -12.8926553067        9.3479261456        1.8923091075
 H        -9.6686319322        3.6947171099       -1.8290454897
 H       -10.2910077401        4.9540298020       -0.7179285814
 H       -11.4136163054        3.9849215178       -1.6801853174
 H       -13.1495372892        3.3306078985       -0.6220850653
 H       -12.6106602927        4.1752352945        0.7534703803
 H       -12.8592755305        2.4896684948        1.0063561826
 H        -9.2469465986       -3.5752636603       -1.0673988800
 H        -9.0301833250       -3.5311067661       -2.8247239829
 H       -10.3692637535       -2.5555929132       -2.0746758421
 H        -6.5851265754       -1.0812181380       -1.9639062236
 H        -7.0134153265       -2.1367053756       -3.1409524476
 H        -6.8324245696       -2.8011318228       -1.4052500408
 H        -8.1445725471        2.0683137760       -7.2339370762
 H        -6.7267156653        1.3159899638       -7.9888033937
 H        -6.5325487170        3.0004039478       -7.7655664953
 H        -4.5232956374        0.9458856047       -5.0904135119
 H        -4.1580766575        1.9383207528       -6.5805515470
 H        -5.0747774781        0.3235901013       -6.6441935171
 H        -4.5296516986        6.1735948684        0.7374020658
 H        -5.9879982393        6.1099820182       -0.2693374643
 H        -4.3563050582        6.3008129264       -0.9429779811
 H        -2.8313446873        4.7068704659       -0.6746034832
 H        -3.5863404723        4.0657302958       -2.1553543762
 H        -3.1536198744        2.7684710810       -0.9755272005
 Na       -7.3420025823        1.4985080636       -0.1361792348
