117

 C        -4.6144123231        3.7643176175        2.1063004197
 C        -4.9226230572        3.2652242533        0.7342386588
 O        -5.1496196869        2.0650960289        0.5740320862
 C        -4.7955732341        4.2168668851       -0.5646441151
 C        -6.0124632247        3.9388342609       -1.4891102646
 O        -7.0849556438        3.3297527171       -1.1271980498
 C        -5.8506647621        4.4326643246       -2.8818037079
 C        -5.5111618338        3.1250666430       -3.7793787315
 C        -6.5225915536        3.1046300988       -4.8976992241
 O        -7.3609663696        3.8909797080       -5.2023124636
 C        -6.3481357880        1.6591470790       -5.7918075927
 C        -7.0493118088        0.4764077228       -5.0680264214
 O        -6.3154556607       -0.3652519139       -4.5763062881
 C        -8.5649382757        0.3287638041       -5.0226715796
 C        -9.0949681768       -0.7048024408       -4.0279405014
 C        -8.6091450090       -0.5556689124       -2.5225349079
 O        -8.3607723675        0.5955449238       -2.0830403401
 C        -8.4979108319       -1.7933182991       -1.5701625068
 C        -8.6725215281       -1.1625138118       -0.1816168200
 O        -7.6823850421       -0.6729736482        0.4249773814
 C       -10.1789557870       -0.8961037499        0.2602728253
 C       -10.3103738723        0.6108315266        0.7188390062
 C       -10.5416073682        1.6342732145       -0.3652181900
 O       -10.9410473704        1.2041535782       -1.4456263718
 C       -10.9576420214        3.2152863319        0.0218925374
 C       -10.1360800945        3.6078755935        1.2216979903
 O        -8.9661237571        3.1486007002        1.3626466096
 C       -10.5240241918        4.5684912817        2.2545575777
 C       -10.3549883658        5.9687729536        1.7813105887
 C       -10.5409805682        6.9649497095        2.8919261598
 O        -9.6506674609        7.2117582502        3.6624786589
 C       -11.7664185924        7.8798841708        3.0684853147
 C       -13.1346241381        7.0874504675        3.5564514035
 O       -13.2947274316        5.8785387315        3.4005129217
 C       -14.1720615890        8.0820184356        4.3312417019
 C       -15.6015126798        7.7201989457        4.7368920749
 C       -16.3507684045        7.5681506073        3.4191333434
 O       -15.6584998886        7.4218649634        2.4596281020
 C       -17.9492779248        7.4421801398        3.5098226864
 C       -18.0908520251        5.9610202403        3.8932410387
 O       -18.2019332263        5.5448246646        5.0636314155
 C       -17.8640908574        4.8654615650        2.8434520220
 C       -18.4083838764        8.4079324281        4.6510184343
 C       -18.4519478345        7.8038540301        2.0414714121
 C       -11.4051681167        9.0345957149        4.0908355051
 C       -12.1815002703        8.4281075475        1.6073933293
 C       -10.5687799505        4.1557791266       -1.1696916759
 C       -12.4507038131        3.1517252986        0.1893627575
 C        -9.4967180111       -3.0436165302       -1.9081780319
 C        -6.9089531347       -2.1049797926       -1.9551763769
 C        -7.1161445352        2.0095573631       -7.1040827156
 C        -4.8392718094        1.3391115912       -6.1000369574
 C        -5.0148548654        5.6912726907       -0.4195201015
 C        -3.3533271346        3.9189765434       -1.2169281522
 H        -4.3633774333        2.9114137400        2.7771720786
 H        -5.3454800688        4.4131743162        2.6441070879
 H        -3.7286108031        4.3517503793        2.0759046731
 H        -5.0991126197        5.2057887598       -3.0785624644
 H        -6.8024704159        4.7465452376       -3.1802951465
 H        -5.5655000982        2.2156733945       -3.1653395527
 H        -4.5241164495        3.0486620773       -4.2558889113
 H        -8.9911257283        0.0954608169       -5.8933290041
 H        -8.9988457921        1.2900086523       -4.8279996661
 H        -8.8364311356       -1.6687598095       -4.3832187768
 H       -10.1307733938       -0.5106182203       -4.0345686944
 H       -10.5008317751       -1.5679562974        1.0588578596
 H       -10.9382265142       -1.1899818403       -0.4658625362
 H        -9.4934115603        1.0257159035        1.3439582725
 H       -11.2143634687        0.5340042713        1.3196292538
 H        -9.8039611050        4.3463461622        3.1331343702
 H       -11.5472915448        4.5119909509        2.5870510513
 H       -10.8969563894        6.1920596496        0.8363124810
 H        -9.2722656511        6.2628803645        1.4533309532
 H       -14.2014828728        8.8897997148        3.6033784442
 H       -13.5532793715        8.3472792143        5.0757119352
 H       -15.9325057648        8.6679503425        5.1206875981
 H       -15.7521393386        6.9091826195        5.4021778533
 H       -18.5810830559        5.0194536708        2.0418713955
 H       -18.1807670467        3.7946846575        3.1314239705
 H       -16.9059506827        4.8424764100        2.2105070596
 H       -19.5122188754        8.5574073812        4.6147035299
 H       -17.9123687478        9.3143668994        4.4953424672
 H       -18.0402862922        7.9718818870        5.5049389839
 H       -19.3937550209        7.3847659424        1.7831896212
 H       -17.6217214290        7.6017591507        1.3478943165
 H       -18.4776885427        8.8113293848        2.0580968340
 H       -12.0285044596        9.9101916164        4.1881116784
 H       -10.4385762582        9.5027615266        3.7798126522
 H       -11.3322562771        8.5986486638        5.1120817447
 H       -12.1020597062        7.5666096274        0.9063329230
 H       -11.5517080500        9.3240983454        1.3506004382
 H       -13.1233726498        8.9464226314        1.5032276533
 H        -9.5082346578        3.9626714665       -1.2518322285
 H       -10.7681045010        5.2064071025       -0.8715548801
 H       -11.1336801199        3.8355306760       -2.0304010151
 H       -12.9488811049        3.0881204041       -0.7802396965
 H       -12.8110829430        4.1010293136        0.4770973050
 H       -12.7221878464        2.4273625015        0.9274564364
 H        -9.7358367504       -3.5989021086       -1.0438908461
 H        -8.9731324984       -3.8344495919       -2.6292348388
 H       -10.3983316623       -2.5718745458       -2.4856886614
 H        -6.2793655216       -1.2961336304       -1.5970327576
 H        -6.8331339277       -1.8590518950       -3.0075742483
 H        -6.7427989935       -3.1501892445       -1.6235844333
 H        -8.2066275657        2.1311797520       -6.8895882976
 H        -6.9935911568        1.5214285724       -8.0802542214
 H        -6.7234341300        3.0277031425       -7.3144591003
 H        -4.3211064869        0.9853161967       -5.2323377398
 H        -4.2412184093        2.1541786484       -6.5243264909
 H        -4.9845665176        0.4554023884       -6.7833939616
 H        -4.2513285293        6.1378627585        0.3186085701
 H        -5.9715447889        5.9480835616        0.0414104292
 H        -4.7817046090        6.2658141992       -1.4301398503
 H        -2.6114908620        4.4305975470       -0.6419870913
 H        -3.4040443692        4.3592172932       -2.2875524079
 H        -3.4018531517        2.8670864883       -1.3788901728
 Na       -7.4726762390        1.3847530478       -0.0203646310
