117

 C        -4.4159561865        3.8773196168        2.2507322634
 C        -5.1035974010        3.4399200120        0.9600410221
 O        -5.6627060281        2.3600813906        1.0310597114
 C        -4.9559726563        4.2821752154       -0.3819081941
 C        -6.1071646120        4.0218095641       -1.3839830800
 O        -7.2081915721        3.6845959446       -0.9165039998
 C        -5.8276137333        4.3073219361       -2.9234170753
 C        -5.7669476573        3.0057128514       -3.7381826364
 C        -6.8396028669        2.6819827607       -4.7380890937
 O        -7.9558192122        3.0946403826       -4.7200513858
 C        -6.5754576690        1.5460632114       -5.8274499957
 C        -7.0547581132        0.2627808494       -5.0930338490
 O        -6.3414198661       -0.4823806562       -4.4354460866
 C        -8.5546007209        0.0508978289       -5.0485838727
 C        -8.7904484726       -1.0468772745       -3.9879987215
 C        -8.3913568875       -0.6969485136       -2.5792021833
 O        -8.0128177607        0.4346429366       -2.2343891991
 C        -8.3045924517       -1.9286225427       -1.4715673412
 C        -8.7303995839       -1.2172969436       -0.1257286458
 O        -7.8933603915       -0.7281164244        0.6871453000
 C       -10.1284289661       -0.8678014399        0.0366348726
 C       -10.4871160882        0.4825879666        0.6063319114
 C       -10.6876168160        1.6520713330       -0.5925591155
 O       -10.7303962506        1.3061426467       -1.7266040426
 C       -11.0293146298        3.1279079037       -0.1562530688
 C       -10.2061785298        3.5200767161        1.1679388772
 O        -8.9868001244        3.1483485407        1.3445952283
 C       -10.6362966091        4.6328880817        2.1903886840
 C       -10.3200736015        6.0462962111        1.7982017119
 C       -10.4517756180        7.1800966033        2.8522685401
 O        -9.6836945380        6.9528079878        3.7486419891
 C       -11.6834867441        8.2509557276        2.7712261179
 C       -12.8495542707        7.5043071341        3.4764803569
 O       -13.0163395405        6.3189817110        3.1912876008
 C       -13.8963674868        8.2885945864        4.4341782719
 C       -15.2425984199        7.5256273933        4.4463549218
 C       -16.0454377367        7.5581999886        3.1578540871
 O       -15.7116252794        7.1449893071        2.0274987824
 C       -17.6582066715        7.6682676075        3.3233062501
 C       -18.0417776110        6.0771409417        3.8969719128
 O       -17.9020466966        5.6849508221        5.0614079309
 C       -18.0713586210        5.0861418059        2.7728005700
 C       -18.0960121106        8.6078234099        4.5472124862
 C       -18.3179260669        8.0155067841        2.0402629424
 C       -11.0426669412        9.4616102120        3.4644099425
 C       -12.0216007718        8.5506734993        1.2889381525
 C       -10.5947844516        4.1735920722       -1.3443508369
 C       -12.4862175521        3.2589326142        0.2826278671
 C        -9.4384703152       -2.9835337991       -1.7512028858
 C        -6.9160945532       -2.6627062812       -1.3255300839
 C        -7.5141411020        1.7718004228       -7.0790294459
 C        -5.1096783699        1.1742380040       -6.3731773438
 C        -4.7875820526        5.7871590148        0.0014853609
 C        -3.6291501254        3.8310748900       -0.9656927699
 H        -4.5808243296        3.1621922351        3.0364537103
 H        -4.7551171429        4.8754906655        2.5907516182
 H        -3.3511511393        3.9594325549        2.2578770438
 H        -5.0306540478        4.9534043488       -3.0599039337
 H        -6.7433118937        4.7747008993       -3.4874322881
 H        -5.5790696648        2.1209403490       -3.1656076665
 H        -4.8023538554        3.0122844451       -4.2134624127
 H        -8.8905857370       -0.3363854470       -6.0333499173
 H        -9.2210525660        1.0050728902       -4.9497040745
 H        -8.1825357222       -1.9265709840       -4.2212849558
 H        -9.9220326264       -1.3285668128       -3.8926388823
 H       -10.5681376580       -1.7113484884        0.6970503125
 H       -10.5812521519       -1.0581828596       -0.9539258455
 H        -9.9240947180        0.6606851021        1.5400167228
 H       -11.4973565314        0.3648115749        1.0256800157
 H       -10.1099820453        4.5080302299        3.2131640614
 H       -11.6959298188        4.4889380569        2.3398942517
 H       -10.7314962438        6.4367917030        0.8891440604
 H        -9.2966917637        6.1000471494        1.4413527365
 H       -13.9513262499        9.2766114340        3.9262522781
 H       -13.4229174595        8.3640107128        5.4349475227
 H       -15.7851383851        8.0029789194        5.3138381347
 H       -15.1303215916        6.3857226675        4.5685775164
 H       -19.0367866231        4.8226305906        2.5204400448
 H       -17.6174144482        4.1540800893        3.0611320276
 H       -17.6786511276        5.3329511299        1.8479763600
 H       -19.2112195145        8.5865244861        4.6990080683
 H       -17.7224530523        9.6467035028        4.2923737153
 H       -17.6443367473        8.1320737182        5.4192723094
 H       -19.4284534561        7.8810939754        2.3114036762
 H       -17.9260460548        7.2512562973        1.2120228023
 H       -18.2231991683        9.0723482426        1.8153180194
 H       -11.6410923626       10.3354839919        3.5897568423
 H       -10.2257539665        9.7941275932        2.8007143077
 H       -10.7227649718        9.2929721414        4.4569485063
 H       -12.6133890840        7.7693711766        0.8286123511
 H       -11.1773660706        8.9997184849        0.6388517311
 H       -12.6821772690        9.3462767874        1.2304768457
 H        -9.7298713972        4.7838409901       -1.0132257609
 H       -11.4350276077        4.6800630737       -1.7552570282
 H       -10.3220454873        3.4313634546       -2.0925597274
 H       -13.2793766787        3.0358645538       -0.4908738737
 H       -12.7733383957        4.2770970184        0.4232977604
 H       -12.6160432661        2.6545756078        1.2136496679
 H        -9.3012229356       -3.7270784336       -1.1242588889
 H        -9.3982862736       -3.4377273530       -2.7848151760
 H       -10.4279780098       -2.6105008859       -1.8392142270
 H        -6.3053187870       -2.1291718248       -0.6503795795
 H        -6.3539793447       -2.7517643577       -2.2472742438
 H        -7.2964069382       -3.5356972847       -0.8949339611
 H        -8.4499815249        2.2672200415       -6.7813693220
 H        -7.7849308827        0.8525906135       -7.4965425516
 H        -7.1591683493        2.3803618578       -7.9383572306
 H        -4.5724877209        0.8789057463       -5.4865104420
 H        -4.5878946029        2.1176106814       -6.6115537822
 H        -5.0310701905        0.5568020072       -7.2668603503
 H        -4.1229606592        5.9446268619        0.7831953572
 H        -5.5942243445        6.0718825520        0.5255448760
 H        -4.5990009062        6.3850723279       -0.8602989973
 H        -3.0082829060        3.8086656352       -0.1059403191
 H        -3.1289935513        4.6089402922       -1.6558300927
 H        -3.8131831048        2.8997417313       -1.4949561951
 Na       -7.6983187998        1.6687157738        0.1155144546
