117

 C        -3.9042598514        1.6573460674        8.5813911221
 C        -4.1890108813        3.2133303976        8.5496332590
 O        -3.3474487831        3.9853303360        8.1140158807
 C        -5.6696710254        3.8256228549        8.8486651277
 C        -6.2553585824        3.8268710092        7.4204590037
 O        -6.7527190778        2.8474367023        6.9588703926
 C        -5.9051615987        5.0104468465        6.5337737781
 C        -5.6470819131        4.4483767802        5.1369065562
 C        -6.2804074351        5.1438894258        3.9691725634
 O        -7.3979381149        5.6409425633        4.0579420102
 C        -5.4447869814        5.1754681065        2.6242794175
 C        -5.4775103428        3.7880349693        1.9680245000
 O        -4.4631305426        3.1370831663        1.8824354986
 C        -6.9318032157        3.2357866311        1.5694906149
 C        -6.6490565299        2.6223003320        0.1229323787
 C        -7.8167153575        1.9235221479       -0.6752717710
 O        -8.2234780949        2.2561923682       -1.7514059440
 C        -8.5036918176        0.4476607795       -0.1031855854
 C        -9.8247367233        0.7358440992        0.6939706535
 O        -9.7761977964        1.2228125891        1.8089464733
 C       -11.2929926759        0.2729777673        0.0899481995
 C       -12.3335363166        1.1909198123        0.5940086441
 C       -12.0966287950        2.6786301703        0.2123704626
 O       -11.0399553612        3.1947926581       -0.0446164662
 C       -13.3788442089        3.6890803048        0.0503106501
 C       -13.8942121172        3.5353894518       -1.4522573697
 O       -13.1955620236        2.9935579926       -2.2306768010
 C       -15.2971213791        4.0690972487       -1.8031076640
 C       -15.5186991943        4.1188249243       -3.3207241031
 C       -15.0698244348        5.5636813586       -3.7599265864
 O       -14.6683876701        6.3671661843       -2.9669105161
 C       -15.2206623762        5.8187358458       -5.3689225731
 C       -13.8054330286        5.5203823978       -5.9184650243
 O       -13.5519119193        4.4788829290       -6.5569952939
 C       -12.7827101411        6.5136253242       -5.5022272983
 C       -11.3362779325        6.0341019929       -5.8581935919
 C       -10.7317124410        4.9290049130       -5.1383230146
 O       -10.6729027454        4.9284557337       -3.9091456599
 C       -10.3613824634        3.6403708706       -5.8438721187
 C       -11.2543266783        2.3930230917       -5.2423538851
 O       -11.0303491787        2.0791511183       -4.1169089997
 C       -12.5079040979        1.8002385825       -5.8150693792
 C       -10.4461665230        3.6343831913       -7.4324875873
 C        -8.8181892138        3.4141134711       -5.5044398834
 C       -16.2485593904        4.8308750881       -6.0789041591
 C       -15.6346430205        7.2799532663       -5.6438693905
 C       -14.4990642570        3.2729575441        0.9704703376
 C       -12.9145559360        5.1504415269        0.2735315268
 C        -8.8798042587       -0.3149238865       -1.3796959872
 C        -7.5382410846       -0.3102390740        0.8164746785
 C        -6.1233656324        6.2359254387        1.6092173520
 C        -3.9703779406        5.7047770954        2.8431239433
 C        -6.5657241107        2.8835688175        9.7485708048
 C        -5.6182353840        5.1176369391        9.6042282059
 H        -3.6060410827        1.2899353050        7.5766703171
 H        -4.7714075870        1.1455183835        8.9478541323
 H        -3.0439461493        1.6218611865        9.3083016263
 H        -5.0617492853        5.5156231194        6.9243242342
 H        -6.8313974043        5.6242253731        6.5800690293
 H        -6.2693640429        3.4024847267        5.2012516603
 H        -4.6292057210        3.9877182680        4.9755822818
 H        -7.7572632470        3.9891218993        1.5392518445
 H        -7.1914690493        2.4064943443        2.3270024738
 H        -5.9329158595        1.8083741541        0.3218519716
 H        -6.1503256545        3.2796556604       -0.5996574280
 H       -11.4333224825       -0.7504472258        0.3880436056
 H       -11.3713015930        0.2524293771       -1.0037781967
 H       -12.5830225652        1.0936756199        1.7183835702
 H       -13.2439792387        0.8897756020        0.0762502277
 H       -15.5338231403        5.0188923167       -1.3664378124
 H       -15.9731008947        3.3778015543       -1.4066580419
 H       -16.5796135487        4.1240003896       -3.5072094680
 H       -14.9728101805        3.3721971225       -3.9139083971
 H       -12.9702011753        6.8819609356       -4.4917112658
 H       -12.8487171946        7.4467862399       -6.1216797983
 H       -10.6173302634        6.8410373937       -5.7743839375
 H       -11.3063596040        5.9294880477       -7.0125893712
 H       -13.3236721789        2.0548904016       -5.2003708686
 H       -12.3379630049        0.7695070888       -6.1310762872
 H       -12.7427683252        2.3154794588       -6.7390785696
 H        -9.4667310790        4.0177424535       -7.7180514201
 H       -11.2323973397        4.2335060821       -7.8534010393
 H       -10.5823138452        2.5600519951       -7.7928421413
 H        -8.5972835958        3.1973178212       -4.4620099783
 H        -8.1986522889        4.3159267792       -5.8152638038
 H        -8.5482831247        2.6150837840       -6.0519642785
 H       -15.8318177430        3.8051107989       -6.1316759646
 H       -16.5141653305        5.1791198440       -7.0688880171
 H       -17.2055293213        4.7959680276       -5.4573262958
 H       -15.6257657706        7.3120491736       -6.7600360518
 H       -14.8673147814        7.8759921011       -5.2547912912
 H       -16.5086263253        7.6943472983       -5.0451564989
 H       -14.0392151781        3.0574548046        1.9533246841
 H       -15.0429481616        2.3711258778        0.5583396327
 H       -15.2250742924        4.0774985141        1.1819737103
 H       -13.3022952482        5.4953653383        1.2908393767
 H       -13.4001381480        5.8828670234       -0.4371015791
 H       -11.8234623299        5.2632715949        0.1440899015
 H        -9.2466748627       -1.3431552676       -1.0954796994
 H        -7.9824312313       -0.5904338985       -1.9009928514
 H        -9.4473527484        0.3672561313       -2.0092549234
 H        -7.5889859710        0.0260820724        1.8818360047
 H        -6.4561822164       -0.3231915555        0.3956759454
 H        -7.8711003668       -1.3109509756        0.7375714984
 H        -6.2582673158        7.1489199067        2.2462713669
 H        -6.9634262619        6.0138842208        1.0333377650
 H        -5.3814099031        6.5683082750        0.8555701306
 H        -3.2727434752        4.9110175327        3.1935757834
 H        -3.9173123595        6.4404504229        3.6115592752
 H        -3.6528988886        6.1092110242        1.8674393052
 H        -6.8369439031        1.9432539497        9.2236188990
 H        -7.4751184868        3.3629362080       10.0692740801
 H        -5.9880710547        2.6455817515       10.6857133320
 H        -4.9162667423        4.8619440203       10.4541885376
 H        -6.5917172310        5.1032157239       10.0566576274
 H        -5.2774833274        6.0380921184        9.1829422563
 Na      -10.2761623525        3.0272810022       -2.2928336962
