117

 C        -4.4652395422        3.7654127826        2.2084551713
 C        -5.4522141394        3.5411033835        1.0957476959
 O        -6.5087021899        2.9608826354        1.2093430946
 C        -5.0188003488        4.1308671812       -0.3277872875
 C        -6.2040387088        3.8466492892       -1.2730060396
 O        -7.4009821669        4.0236100200       -0.9129524931
 C        -5.8854465885        3.9435013296       -2.7582837264
 C        -5.8519792073        2.5214884191       -3.4424723662
 C        -7.0528319524        2.4461153873       -4.4836682179
 O        -8.1665181906        2.8701661380       -4.2327867721
 C        -6.7893539932        1.5036089960       -5.7407694748
 C        -6.9499551009        0.0271385114       -5.0536792442
 O        -6.0345210726       -0.6309333457       -4.6303573721
 C        -8.3406075595       -0.4749633622       -4.7444023113
 C        -8.5896543080       -1.6678091482       -3.7802346722
 C        -8.0771755250       -1.2191820664       -2.3847420940
 O        -7.5598016017       -0.0969613617       -2.2268005068
 C        -8.4336733372       -1.9597853667       -1.0415084784
 C        -9.2011052229       -0.9706291023       -0.1025083104
 O        -8.6104873103       -0.2358559446        0.7142313850
 C       -10.7745322777       -1.0131544139        0.1480997197
 C       -11.2594094483        0.4049185366        0.5175081251
 C       -10.7090658314        1.4960054930       -0.4349765233
 O        -9.8412429260        1.2955609958       -1.2529345715
 C       -11.1268353451        2.9460727572       -0.1564496146
 C       -10.1899775423        3.3428957764        1.1609011937
 O        -9.0904821111        2.7372394069        1.3822792238
 C       -10.4285166813        4.6293389923        2.0827630033
 C       -10.2728494931        5.9474531248        1.4011722792
 C       -10.2643851181        7.2019865206        2.3799694184
 O        -9.7182470619        7.1422468785        3.4280948369
 C       -11.3522483317        8.4487643651        2.2844195611
 C       -12.5633252465        7.6694965174        2.9022271105
 O       -12.5832006125        6.4606991888        2.9506988087
 C       -13.5916540789        8.5325222443        3.8456220568
 C       -14.8308793096        7.7404557099        4.1257524161
 C       -15.6917137788        7.7113820573        2.9257490476
 O       -15.4121475438        7.8685498428        1.7651466917
 C       -17.1846683437        7.6274878774        3.2602557687
 C       -17.8406308755        6.2714151344        3.8007619159
 O       -17.7552854624        5.9687884790        5.0116754794
 C       -18.6494868104        5.3811267232        2.8664587447
 C       -17.5589313221        8.6503873677        4.3416416462
 C       -17.9473088587        7.9621500299        1.9380079036
 C       -10.9516910431        9.6122293202        3.2103399732
 C       -11.7999097385        9.0007085633        0.8973578314
 C       -10.6443154678        4.0631146558       -1.3031051780
 C       -12.5723520400        3.2200246477        0.2964856064
 C        -9.2484426336       -3.2628970488       -1.1203281662
 C        -7.1963808005       -2.2511351003       -0.1176219604
 C        -7.9057672465        1.6238693676       -6.7206810494
 C        -5.4534326015        1.8194592955       -6.3167716448
 C        -4.9598907549        5.6608728845       -0.1656967376
 C        -3.6649115804        3.4738105998       -0.8444599945
 H        -3.7773435240        2.8461191406        2.3450543546
 H        -4.9797533791        3.8699415593        3.1635397078
 H        -3.8181105564        4.5394996269        2.1255994227
 H        -5.0702811725        4.6918282080       -2.8775292602
 H        -6.7553823651        4.4840791000       -3.0465432705
 H        -5.7473964382        1.6715251384       -2.7053435132
 H        -4.8210858530        2.3459178865       -3.7730208104
 H        -8.7994110616       -0.6806451726       -5.7511791455
 H        -8.9889561634        0.4760361682       -4.4259861483
 H        -8.1546395332       -2.6047527853       -4.1619219573
 H        -9.6919008732       -1.8851351245       -3.5408753652
 H       -10.8986604523       -1.6915918705        1.0270157591
 H       -11.3399785215       -1.2717308713       -0.7398069410
 H       -11.2942463018        0.6275832152        1.6133293920
 H       -12.3231219633        0.3368992718        0.2832109012
 H        -9.6240770307        4.5564719912        2.8701044274
 H       -11.2980899832        4.6877936249        2.6396274689
 H       -10.9578481788        6.0534816564        0.6314947441
 H        -9.2993840296        6.0219499014        0.9671332637
 H       -13.8706895410        9.4472261132        3.1823051338
 H       -12.9455458780        8.8115940254        4.7103231297
 H       -15.3128399410        8.0578191960        5.0803555893
 H       -14.4118841388        6.7284799359        4.3255602292
 H       -19.3928556551        5.9892217965        2.4604810078
 H       -19.0779365629        4.4866525708        3.4242856962
 H       -18.1856654754        4.9047210122        2.0353967067
 H       -18.6798650869        8.9280182110        4.3924439249
 H       -16.8425910913        9.4494455283        4.2267379920
 H       -17.4911984267        8.0741829780        5.2273247890
 H       -19.0372465642        8.0500761554        2.3168396097
 H       -17.8341730515        7.2474664193        1.1025393655
 H       -17.6628267767        8.9747526022        1.6693516382
 H       -11.6255161162       10.3824885151        3.4840241010
 H        -9.9990635522       10.0366218110        2.8706586097
 H       -10.5449171935        9.1781127857        4.1192164742
 H       -12.0122698044        8.2494868348        0.1163538692
 H       -10.9426211158        9.5128331551        0.4169792560
 H       -12.6684025566        9.5641400084        0.9472778291
 H        -9.5462218832        3.8893588806       -1.3821017969
 H       -10.8387656441        5.0970524874       -0.9221192153
 H       -11.2213906464        3.9776187055       -2.2630646841
 H       -13.4214594175        2.8720071177       -0.3196460814
 H       -12.5479354768        4.2775246706        0.4001170822
 H       -12.8865938723        2.8868789998        1.2724219537
 H        -9.8444507574       -3.4620232264       -0.2655452680
 H        -8.7648283313       -4.1278420525       -1.4944023845
 H       -10.0321804746       -3.0818400135       -1.8451324308
 H        -6.7723952656       -1.2863320235        0.1586701610
 H        -6.5900068190       -3.0109367368       -0.6062959237
 H        -7.6021618106       -2.6771399658        0.8382624704
 H        -8.8621539282        1.3544040999       -6.4842938123
 H        -7.6409913902        0.7977882820       -7.4089606332
 H        -7.9894278865        2.4915637827       -7.2674900504
 H        -4.6320936208        1.5687119709       -5.7133904070
 H        -5.4736286305        2.8909672638       -6.4073191018
 H        -5.2958481944        1.4874797971       -7.3413607103
 H        -4.2082027787        6.0212299698        0.4956456732
 H        -5.8393035899        6.0798440264        0.1949622922
 H        -4.8906045344        6.0290934761       -1.2324203699
 H        -2.8698820064        4.0998729245       -0.5612370464
 H        -3.7542576404        3.4638432211       -1.9496658957
 H        -3.5523639492        2.5177525284       -0.4108460196
 Na       -7.7962606869        1.7159444461       -0.4595079258
