117

 C        -5.2638317414        4.1155431032        2.4341660803
 C        -5.3833183134        3.3221763396        1.1228525302
 O        -5.8522383857        2.1562682784        1.1645615818
 C        -4.8472456757        3.9832676082       -0.2810572068
 C        -6.1013933878        3.9559234054       -1.2799161732
 O        -7.1680933180        3.9338801662       -0.7712262628
 C        -5.9068334981        3.7504033658       -2.8635524396
 C        -6.0060941595        2.4567343978       -3.5844398657
 C        -7.2831502780        2.2433481994       -4.3485411944
 O        -8.3144518461        2.7793264699       -4.0824074661
 C        -7.3058916105        1.0648087600       -5.4297430691
 C        -6.8817780539       -0.3472481492       -4.7797468620
 O        -5.8603519549       -0.9020697163       -5.0786402140
 C        -7.9645522376       -1.0769688713       -3.8334726185
 C        -7.4161463884       -1.9302078850       -2.7440075327
 C        -7.8385465169       -1.2830891177       -1.3779577015
 O        -7.4932379252       -0.0947510684       -1.4617354454
 C        -8.5662922796       -1.9991769033       -0.1811496233
 C        -9.6670804797       -0.9470165232        0.2967658167
 O        -9.4553073117       -0.3007797950        1.3708209332
 C       -11.0488954518       -0.8324220804       -0.3513174346
 C       -11.7721054735        0.4268931239        0.1251813962
 C       -11.2193312215        1.5637050364       -0.6110250761
 O       -10.2480469195        1.4092619015       -1.4028826581
 C       -11.4078490897        3.0291646944       -0.0425235945
 C       -10.3697963168        3.4852383324        1.2663538362
 O        -9.4470578061        2.6615872631        1.3201782055
 C       -10.4964998478        4.7546875401        2.1341072843
 C       -10.2444780005        5.8936366111        0.9778367713
 C        -9.9183615916        7.2624630447        1.5852224003
 O        -8.7754967653        7.6032838282        1.6611829710
 C       -11.0093755427        8.2871190274        2.0357814430
 C       -12.3568890132        7.6015264955        2.4777611926
 O       -12.6769999306        6.4740885282        2.0968362359
 C       -13.2536543119        8.5005720129        3.4596964941
 C       -14.7266752201        8.1917765344        3.7619806547
 C       -15.6406868873        8.2296303998        2.5369362444
 O       -15.2669532912        8.3634666044        1.3389773594
 C       -17.2180803498        8.1922971237        2.8843559147
 C       -17.3619559859        6.6979349976        3.6098052305
 O       -16.6144145091        6.3731927566        4.5232765300
 C       -18.6580051232        5.9057573323        3.2340786736
 C       -17.7285021640        9.2311561213        3.9944099618
 C       -18.0205771125        8.3418916633        1.5846226774
 C       -10.3684054002        9.1158569129        3.1114186835
 C       -11.2959398152        9.1936369822        0.8129540853
 C       -11.1534384898        4.0692008647       -1.3164797815
 C       -12.9067076729        3.1639704979        0.4899743760
 C        -9.0571786867       -3.3095065580       -0.7028287201
 C        -7.6136398526       -2.1496718222        1.0549704214
 C        -8.7219492353        0.9375596679       -6.0027225262
 C        -6.3513423558        1.4742408807       -6.5988480144
 C        -4.6320592194        5.5324841026       -0.1860945987
 C        -3.5093801525        3.3601441525       -0.7898230574
 H        -4.4858369425        4.8512102656        2.3417484138
 H        -4.9199994404        3.5478775918        3.3601179943
 H        -6.1053572047        4.7414617374        2.6312849177
 H        -5.0645553038        4.3624818109       -3.0067068823
 H        -6.7664172120        4.4246020183       -3.2948626316
 H        -6.0255395780        1.6311173987       -2.9605528096
 H        -5.2267598444        2.3282878313       -4.3874303719
 H        -8.6995906396       -1.6566445619       -4.3721940467
 H        -8.4568880012       -0.2388135688       -3.4062736552
 H        -6.3073713626       -1.9359775963       -2.6744912518
 H        -7.7082882951       -3.0197252044       -2.9095836381
 H       -11.4363824034       -1.7289005065        0.1598104876
 H       -11.0225245346       -0.7352102191       -1.4622659354
 H       -11.6980616050        0.6466601310        1.1765984538
 H       -12.8343834729        0.3385181909       -0.0965611338
 H        -9.7486028748        4.7542009690        2.9579748823
 H       -11.4984804344        4.9728203758        2.5858985318
 H       -11.2804576847        5.9140406678        0.5475850358
 H        -9.3080314507        5.5308511102        0.4432620837
 H       -13.2651478099        9.4719234522        3.0239848914
 H       -12.7408376063        8.6782784298        4.4439869887
 H       -14.9988618136        8.9274440697        4.5507562435
 H       -14.7176514772        7.2168069582        4.3481240072
 H       -19.4649321080        6.4137537488        3.5667919357
 H       -18.6965670762        4.8814259702        3.6928129272
 H       -18.7587533039        5.8223381927        2.2130539555
 H       -18.7582627217        9.0772505330        4.0872960547
 H       -17.7072226495       10.2396307532        3.4506746846
 H       -17.0158786167        9.3032532488        4.8603453921
 H       -19.1550312740        8.1588019008        1.8877780237
 H       -17.7200612739        7.7090284546        0.6690725155
 H       -17.9086538092        9.3797129297        1.2788768050
 H       -10.9064425556       10.0431685558        3.4064276269
 H        -9.3311353587        9.4199605134        2.8389488167
 H       -10.2717252340        8.4976538391        3.9806704823
 H       -11.7534116637        8.7072221674       -0.0396381607
 H       -10.3011325556        9.6627488308        0.3619567302
 H       -11.8366718659       10.0707794008        1.1274929186
 H       -10.1289263187        4.5027878287       -1.1948502182
 H       -11.9947968760        4.7498375467       -1.2950053214
 H       -11.0596375679        3.4993485266       -2.2784986499
 H       -13.6821598411        3.0337045669       -0.2579323757
 H       -13.0750110456        4.1005173609        1.0002380072
 H       -13.1453697365        2.4694677201        1.3153317491
 H        -9.7004825893       -3.8010617081       -0.0513523117
 H        -8.2387590589       -4.1174058376       -0.8791278788
 H        -9.7574319408       -3.1008378925       -1.5796921095
 H        -7.3465790402       -1.1841919819        1.4823416001
 H        -6.8065421770       -2.8932642316        0.9015049303
 H        -8.2362119651       -2.6519595317        1.7248153253
 H        -9.3055920996        0.4090298595       -5.2437828719
 H        -8.8195062557        0.5522040554       -6.9912210644
 H        -9.2343130148        1.9311520109       -6.1133732047
 H        -5.4287730444        1.9737417231       -6.2753601421
 H        -6.7736228115        2.0463050652       -7.3831959653
 H        -5.9657548191        0.5583355393       -6.8548853476
 H        -3.7575883495        5.7725208898        0.3395195530
 H        -5.5337456913        5.8809138230        0.1092399111
 H        -4.3644254158        6.0955917393       -1.0650689452
 H        -2.7897471595        3.4933372162        0.0289096613
 H        -3.0390923928        3.9171072482       -1.6926502417
 H        -3.5552845839        2.2706275456       -0.9574422224
 Na       -7.8459238906        1.5643353155       -0.1665785980
