117

 C        -5.4587563759        4.1374132659        2.2265673618
 C        -5.2978852450        3.2504874262        0.9595601112
 O        -5.7844846281        2.1284385279        1.0196321048
 C        -4.8496553498        3.8937245774       -0.2971644214
 C        -6.1305233436        3.6100948993       -1.1796230349
 O        -7.1522122620        3.7551026768       -0.6447763073
 C        -5.9427461832        3.7133709504       -2.7232618582
 C        -6.0167417140        2.3549021364       -3.4888603470
 C        -7.3564358763        2.1446433321       -4.3098735531
 O        -8.4072425907        2.7201833880       -4.0889303737
 C        -7.3461177026        0.9689988166       -5.4167956155
 C        -6.8676022400       -0.3484438040       -4.7744234732
 O        -5.7347137401       -0.7801165425       -5.0435476770
 C        -7.8723393136       -1.0781910265       -3.8572230953
 C        -7.3470145655       -1.9326379752       -2.6787208481
 C        -7.7163538249       -1.3178118905       -1.2379455163
 O        -7.4564737822       -0.1429557267       -1.1131153077
 C        -8.5989194822       -1.9938463745       -0.1031256326
 C        -9.6657747125       -1.0467508384        0.4558988674
 O        -9.4536692592       -0.2396302353        1.3055447537
 C       -11.0859410465       -0.9773558444       -0.4581046003
 C       -11.7963978237        0.3138003930        0.0750303864
 C       -11.0234130411        1.7178706280       -0.4557698575
 O       -10.2693876247        1.5527629505       -1.3851849495
 C       -11.4247230968        3.0634840036        0.0631109672
 C       -10.4875269536        3.4548740666        1.1478575994
 O        -9.5305345968        2.7274659189        1.4608587047
 C       -10.6286003631        4.6876354046        1.7974885936
 C       -10.3219777748        5.9419301411        0.9330904270
 C        -9.8593299293        7.2587569078        1.4806282714
 O        -8.7281725275        7.6622080227        1.4571842383
 C       -10.9700124099        8.3194420589        2.0095142156
 C       -12.3833158320        7.7360818218        2.4002130812
 O       -12.7322234693        6.6295331157        2.1493747195
 C       -13.2302061754        8.6698706868        3.2587280428
 C       -14.6458157985        8.1962835420        3.6165864311
 C       -15.5083529145        8.2342462113        2.4855148977
 O       -15.2289285928        8.6326407949        1.3731598318
 C       -17.1562934003        8.0879258869        2.7715406424
 C       -17.4176158976        6.7698747145        3.5743866159
 O       -16.6270496466        6.3969963550        4.4537859970
 C       -18.6639986550        6.0235082901        3.3105031319
 C       -17.2885603578        9.1926525749        3.8028550127
 C       -18.0512877753        8.3308283879        1.5490795032
 C       -10.3480668261        9.0915574070        3.1901901960
 C       -11.2909677117        9.3495498149        0.8080785294
 C       -11.2981392518        4.0434854297       -1.2448836802
 C       -12.9238991525        3.1655207810        0.4045980715
 C        -9.1751950456       -3.3782313357       -0.4444825791
 C        -7.5716204805       -2.2712660424        1.1343125183
 C        -8.8640569914        0.9523695238       -5.8402182320
 C        -6.4732536575        1.3123935506       -6.7396851476
 C        -4.6568718892        5.4703789189       -0.2413561374
 C        -3.4283387919        3.3584033555       -0.7535986567
 H        -4.9103611005        5.1334850277        2.4420883973
 H        -5.2115741629        3.5296403261        3.0834692427
 H        -6.4591404629        4.3886548945        2.2724834434
 H        -4.8496955337        4.2303848399       -2.6865219591
 H        -6.5143061251        4.5310237636       -3.1104594943
 H        -6.0332312082        1.4800875761       -2.7403454903
 H        -5.2824725140        2.2732465497       -4.3392920646
 H        -8.3523477456       -1.6958105628       -4.5169395051
 H        -8.5357228294       -0.2979157043       -3.5211371505
 H        -6.3195782685       -1.9925603917       -2.7342248734
 H        -7.7393947212       -2.9688707515       -2.8148632730
 H       -11.6342806117       -1.9522667672       -0.3598622238
 H       -10.8202970046       -0.6321283197       -1.4215832882
 H       -12.2136374004        0.2917894438        1.1051647185
 H       -12.6653115213        0.4349309071       -0.5819081690
 H        -9.7405701129        4.6491926917        2.5520965747
 H       -11.5085866408        4.8338589108        2.3748993227
 H       -11.2918409366        6.1528512059        0.3858021144
 H        -9.3459405480        5.5972201355        0.3932742068
 H       -13.2189985386        9.6647308835        2.8379189274
 H       -12.6803641720        8.8122912650        4.1899317800
 H       -14.8519056177        8.7097095287        4.5773676549
 H       -14.5042805077        7.1828236267        3.9339005823
 H       -19.6135223480        6.4246822490        3.6774896394
 H       -18.5670481727        5.0069419388        3.7111937874
 H       -18.7009751329        5.9195033077        2.1985507486
 H       -18.3358527570        9.3016498224        4.1984007002
 H       -17.0563686029       10.1485782867        3.3777486155
 H       -16.5493673809        8.9875774234        4.4631273932
 H       -19.0795980570        8.0287314100        1.7266101541
 H       -17.7069653102        8.0280778119        0.6208566525
 H       -18.0735832657        9.4556374779        1.5190982907
 H       -10.8955304692        9.9650560271        3.5021234314
 H        -9.2934240632        9.4419188806        3.0634981919
 H       -10.4243303131        8.3810117317        4.0341180111
 H       -12.0530798767        9.0643812063        0.0035487622
 H       -10.3439812092        9.4807111480        0.2403637126
 H       -11.4067894409       10.3821845864        1.1508613956
 H       -10.2810850127        4.3937191277       -1.2742103052
 H       -12.0737171438        4.8107289303       -1.2191930869
 H       -11.3493355029        3.3967253130       -2.0998456305
 H       -13.6105026826        3.0076298672       -0.4618603082
 H       -13.0798520582        4.1695401827        0.7163550779
 H       -13.2748776378        2.6167455487        1.2850048657
 H        -9.5756904917       -3.9324096590        0.5079197852
 H        -8.5063267733       -4.0926269839       -0.8376290834
 H       -10.1288184663       -3.2964725624       -1.0889964783
 H        -6.9501276485       -1.4414927492        1.4015840425
 H        -6.9984134586       -3.1289700408        0.8485074205
 H        -8.1925824227       -2.6029836429        1.9530051671
 H        -9.5254682424        0.8155523392       -4.9468199907
 H        -9.1331915016        0.2767697636       -6.7819448374
 H        -9.1326862112        1.8964342933       -6.2879956505
 H        -5.6628385600        1.9827737014       -6.5062950782
 H        -7.0159513008        1.7526239398       -7.5796441191
 H        -5.9608074141        0.3518117659       -6.9348489164
 H        -3.6658610899        5.6334039723        0.0972154252
 H        -5.5068272203        5.9644585801        0.2234221708
 H        -4.4577676453        5.9784833069       -1.2400037223
 H        -2.5456742820        3.8667066970       -0.3186329002
 H        -3.3574415560        3.4919311773       -1.9143513309
 H        -3.4094210755        2.2492532218       -0.5510970552
 Na       -7.8971979948        1.7329742775        0.0014222338
