117

 C        -3.8311568655        1.8660626692        8.4632199255
 C        -4.2595772284        3.3356814835        8.4477447593
 O        -3.4583587848        4.1264206081        8.1295165282
 C        -5.6638808708        3.9242839557        8.9589452397
 C        -6.2652074047        3.9340885288        7.4529746373
 O        -6.7246045239        2.8850967044        6.9700224670
 C        -5.8679101971        5.0755699809        6.3911254352
 C        -5.7729873433        4.3743975044        5.0498266782
 C        -6.2540898405        5.2331491341        3.9091288537
 O        -7.3851084247        5.6244970968        3.9374224080
 C        -5.4468305008        5.3016277547        2.5657785476
 C        -5.5106398246        3.8101167718        1.9478466141
 O        -4.4934364557        3.1016364099        1.8752211327
 C        -6.8088964409        3.1687651958        1.3938346078
 C        -6.6378546496        2.4244156461        0.0659150908
 C        -7.9176981032        1.7939784032       -0.5652493097
 O        -8.1416889191        2.3477161793       -1.6228909880
 C        -8.5328649904        0.4437823592       -0.1189561931
 C        -9.9024544216        0.6612880320        0.7508050079
 O        -9.8604545991        1.1485642833        1.8475624364
 C       -11.2916707942        0.3808035419        0.1436465778
 C       -12.3105006024        1.3730366944        0.7664249088
 C       -12.0586205682        2.7667691937        0.2575209828
 O       -10.9270311412        3.0099707029       -0.1367309251
 C       -13.3130476710        3.6579070114        0.0872811233
 C       -13.8375455858        3.4330256299       -1.4480839956
 O       -13.1915481746        2.8930194465       -2.3699943831
 C       -15.3303687877        4.0063233569       -1.6404762296
 C       -15.6856076443        4.2277411418       -3.1506042685
 C       -15.2918605578        5.5772156742       -3.6824899086
 O       -14.8233448012        6.4247342570       -2.9828828882
 C       -15.2153106484        5.7474416198       -5.3237023235
 C       -13.7806139113        5.4825807829       -5.8647801894
 O       -13.5567915307        4.5532338446       -6.5961806632
 C       -12.7161764971        6.5086359552       -5.3982505107
 C       -11.2931808860        6.1052469770       -5.8446193680
 C       -10.8486956918        4.8197551943       -5.0151779342
 O       -10.7078759420        4.8170096433       -3.8356297075
 C       -10.2826872240        3.3802212436       -5.8975826769
 C       -11.1653827280        2.3984528562       -5.2445790136
 O       -10.9419631384        1.9861707493       -4.0665793094
 C       -12.4637959828        1.9231864460       -5.8037118785
 C       -10.4230822815        3.4575926656       -7.4788297014
 C        -8.7734666646        3.3424175225       -5.4837010845
 C       -16.2471417858        4.8410388167       -5.9743095455
 C       -15.7041405155        7.2106109307       -5.6674412208
 C       -14.4662199899        3.1795628620        0.9945594731
 C       -12.9408573450        5.2248422041        0.1843816838
 C        -8.7720259871       -0.4944349404       -1.3190245232
 C        -7.4469932598       -0.1878958073        0.8304827342
 C        -6.2014886224        6.0987300589        1.4630725992
 C        -4.0184908812        5.7320276215        2.8079460470
 C        -6.4542721935        2.9400723280        9.8589999340
 C        -5.5290285085        5.3838580499        9.4983221942
 H        -3.4483540170        1.7712738433        7.4625681966
 H        -4.6977829647        1.2419118784        8.4807421994
 H        -3.0827263290        1.6750518772        9.2883169537
 H        -4.8958197966        5.4558996734        6.6437219401
 H        -6.6393071988        5.8452477290        6.3381167479
 H        -6.2049605869        3.3541559746        5.1174057886
 H        -4.7111274911        4.1511651295        4.8436376347
 H        -7.5704345692        3.9022620985        1.0816685134
 H        -7.2017737204        2.5380542836        2.1998984330
 H        -5.7993515714        1.6584918587       -0.0088765907
 H        -6.3705168703        3.0742395312       -0.7190799821
 H       -11.5364739756       -0.7049811640        0.3467096650
 H       -11.2708384414        0.4676816354       -0.9477988702
 H       -12.2463456234        1.4543313505        1.9210000714
 H       -13.3105771387        0.9978211193        0.5445796634
 H       -15.4262095982        5.0355276820       -1.1130142534
 H       -16.0397170457        3.3450181468       -1.1930968197
 H       -16.7901557569        4.3684273771       -3.2483111847
 H       -15.2820054934        3.4794919997       -3.8684766720
 H       -12.7419911946        6.4368293324       -4.3368930495
 H       -12.8138336910        7.5581391598       -5.5603430931
 H       -10.5619350969        6.8680486517       -5.4954081797
 H       -11.1604526898        6.1331729419       -6.9179300209
 H       -13.2310542601        2.7169107654       -5.7002311973
 H       -12.6737462723        0.8443296170       -5.5365825192
 H       -12.4417095669        1.8501326460       -6.8606659960
 H       -10.0105777855        4.3401453370       -7.8615938360
 H       -11.4861969862        3.4648312257       -7.6489566530
 H        -9.9479328816        2.5554603609       -7.9184324530
 H        -8.6860345193        3.3573709120       -4.4584309920
 H        -8.2080572830        4.1002284178       -5.8949456340
 H        -8.3778507246        2.3359049758       -5.8461808843
 H       -15.8910482132        3.7532407079       -5.9054689999
 H       -16.3234922559        5.1022833410       -7.0996677012
 H       -17.2073847975        4.9548165511       -5.5322799072
 H       -15.9079959777        7.1819435221       -6.7323094307
 H       -14.8750392245        7.8407565839       -5.4632288318
 H       -16.4246568941        7.5922754898       -4.9987569954
 H       -14.1995256193        3.2459270305        2.0830309049
 H       -14.9734806725        2.2336260578        0.7065633719
 H       -15.1699547777        4.0664350359        0.9178092755
 H       -13.0197719631        5.5555994734        1.1998531447
 H       -13.5468717381        5.9149141574       -0.3540043248
 H       -11.8949309386        5.2931882504       -0.2019621642
 H        -9.0757873886       -1.4988384045       -0.8754008153
 H        -7.8673032012       -0.7676270169       -1.7539785822
 H        -9.3608959827        0.0447229377       -2.0896455808
 H        -7.5954703115        0.2168661935        1.8564814918
 H        -6.4354716513        0.0038121740        0.4686741897
 H        -7.5998393512       -1.2552928071        0.8305098126
 H        -6.4269901055        7.0837358443        1.8005977961
 H        -7.1625784099        5.6629093943        1.0789001245
 H        -5.5500005069        6.2076529859        0.5802134204
 H        -3.6686859304        5.0957434962        3.6660117532
 H        -3.9172650124        6.7574771500        3.2220904076
 H        -3.3976388375        5.5612257530        1.8884039080
 H        -6.7069353877        2.0031385976        9.3657271535
 H        -7.4338445592        3.3567750447       10.1279179737
 H        -5.8885397735        2.7632696442       10.7655886373
 H        -4.4530963309        5.5266857766        9.7036441907
 H        -6.2081495616        5.5038785323       10.3757133867
 H        -5.6822666755        6.1390365562        8.6588507921
 Na      -10.3316052250        3.0405118061       -2.3810382383
