117

 C        -5.6157880451        4.1325934085        2.2814887314
 C        -5.3031469300        3.1978894647        1.0589503879
 O        -5.5807378776        2.0503883560        0.9147800026
 C        -4.8234719574        3.8872351012       -0.3173594109
 C        -6.0108959201        3.6829175497       -1.2162722218
 O        -7.1713154573        3.5202687292       -0.7722933752
 C        -6.0293565443        3.6842813778       -2.7877455697
 C        -6.0198469317        2.1666091734       -3.4100013237
 C        -7.3987108849        2.0318023566       -4.2895837029
 O        -8.3048929861        2.7685740033       -3.9930408240
 C        -7.4471179104        0.9351388161       -5.4263611004
 C        -6.8510747127       -0.3370342008       -4.7695843897
 O        -5.6969577687       -0.6290192306       -4.8858395982
 C        -7.8973972457       -1.1417360759       -3.8017786028
 C        -7.3579566254       -1.9779902078       -2.4823519759
 C        -7.7274385960       -1.2610120750       -1.2149145043
 O        -7.3254715306       -0.1863804912       -0.8188007609
 C        -8.5884279977       -2.1113902448       -0.0472430249
 C        -9.6173273208       -0.9852577171        0.3807307327
 O        -9.4548576984       -0.2014937819        1.2382954020
 C       -10.9532845292       -0.9636079566       -0.3942858309
 C       -11.8113109882        0.2599120824       -0.1850770870
 C       -11.0886390488        1.6704255354       -0.5973337105
 O       -10.0813220609        1.5451570442       -1.2786147739
 C       -11.5779183295        3.0342904744       -0.0594479633
 C       -10.4205660988        3.4544755628        1.1537131471
 O        -9.5785512483        2.6975558695        1.4972443381
 C       -10.6431339125        4.9553885910        1.7873623816
 C       -10.3690999276        6.0724878348        0.7785722786
 C        -9.9302054374        7.3634814067        1.3608352572
 O        -8.7169244588        7.6306895139        1.2910436707
 C       -10.9061488554        8.3870481569        2.0292995308
 C       -12.3196892992        7.9077303676        2.3946824450
 O       -12.7860877474        6.7842015487        2.1228088691
 C       -13.1002533260        8.8802125360        3.1915855519
 C       -14.4332322500        8.0273894591        3.5012074454
 C       -15.4937973380        8.3353315990        2.3103295097
 O       -15.2110513525        8.8503402367        1.2925646070
 C       -17.0356466316        8.1834317917        2.7922915197
 C       -17.3981072910        6.7302583114        3.4806188682
 O       -16.6739412972        6.4164963742        4.3800709243
 C       -18.7386706681        5.9998440773        3.3089525364
 C       -17.2146399326        9.3623016302        3.7890907188
 C       -17.9606492177        8.2995912125        1.5797548629
 C       -10.3002603690        9.1012824542        3.2261589064
 C       -11.1881989185        9.4208926087        0.8490176940
 C       -11.3803646797        3.9547630684       -1.2507317712
 C       -13.0033751709        3.1178656694        0.4315673879
 C        -9.2990535733       -3.5123649904       -0.2983035264
 C        -7.4915336109       -2.3426786206        1.1318327668
 C        -8.9802970249        0.8082756344       -5.8566086204
 C        -6.6347186824        1.2073258761       -6.6744432886
 C        -4.7345478702        5.3966947506       -0.3051037174
 C        -3.4696856037        3.1842314538       -0.8122682596
 H        -5.0122226508        5.0111182164        2.3476111134
 H        -5.5113061204        3.6386596212        3.2009036323
 H        -6.6899950963        4.5207648752        2.1633227587
 H        -5.1644733408        4.3117676944       -3.1400195501
 H        -6.8465047752        4.2738988749       -3.1155376344
 H        -6.0896533938        1.3155088941       -2.5607084448
 H        -5.2665101141        2.0764471093       -4.2175680901
 H        -8.2395494721       -1.9366507679       -4.5229921797
 H        -8.7011205658       -0.4737134469       -3.5024201184
 H        -6.2673667870       -2.0774535964       -2.5415312139
 H        -7.7682128205       -2.9235999874       -2.4795789314
 H       -11.4213058561       -1.8143651955        0.1250258019
 H       -10.7672207792       -1.1497764536       -1.4375027400
 H       -11.8130322665        0.3612476730        0.9332417666
 H       -12.8712683686        0.0901348311       -0.4568257263
 H       -10.1229168677        5.2040225019        2.7110135934
 H       -11.6938447643        5.0822404667        2.0532201263
 H       -11.3058070341        6.1922809295        0.2300054568
 H        -9.4743420107        5.7615861844        0.2785113527
 H       -13.3903831112        9.7114292561        2.4474804491
 H       -12.5313389114        9.3927819391        3.9352364027
 H       -14.7646437247        8.3025823192        4.4847865892
 H       -14.1143830003        7.0428069541        3.6843479891
 H       -19.5832166225        6.7380199371        3.7369078852
 H       -18.7388658685        5.1506012473        3.9798355148
 H       -19.0130708080        5.6534800068        2.2430983971
 H       -18.2453392048        9.6714490678        3.6372683269
 H       -16.6026775959       10.1652285730        3.5888392796
 H       -16.9296979743        9.0286123088        4.7935390919
 H       -18.9094682258        8.0056945174        1.7154107182
 H       -17.5010743158        7.8191295305        0.7589561099
 H       -18.0193103096        9.3211681198        1.2771602324
 H       -10.7581292558       10.0350111723        3.5118747966
 H        -9.2763283246        9.4143734544        3.0145494577
 H       -10.3816948185        8.4276943839        4.1401068483
 H       -12.0662774555        9.0910858129        0.2378058268
 H       -10.3836431877        9.5122711119        0.1880855076
 H       -11.2570080557       10.5095322605        1.1317285417
 H       -10.3450372413        3.8783428053       -1.4715180018
 H       -11.6762620855        4.9834808904       -0.9764274756
 H       -11.8917878835        3.5946327202       -2.0986477572
 H       -13.8000357377        2.7835336452       -0.2397369412
 H       -13.3064048412        4.1562852800        0.7234312188
 H       -13.0277110162        2.6213167668        1.3892071283
 H        -9.6541174977       -4.1071207338        0.6211562116
 H        -8.7244968725       -4.2494119153       -0.8175160531
 H       -10.1630954404       -3.3897280443       -0.9026434441
 H        -6.8175848110       -1.4762254967        1.0748976074
 H        -6.8636925564       -3.1502357569        0.8685824153
 H        -7.9347133576       -2.4491142377        2.1546634257
 H        -9.6517821382        0.9941192296       -4.9773830173
 H        -9.1423686760       -0.1593081425       -6.3356330622
 H        -9.3036469170        1.4162484482       -6.7145702752
 H        -5.9050587804        1.9743309790       -6.4128600312
 H        -7.2625088453        1.7026834244       -7.4527796690
 H        -6.0402903492        0.2833990166       -7.0129778573
 H        -3.7605813132        5.7786227715        0.1328897971
 H        -5.7928088724        5.7839787493        0.0596527653
 H        -4.5651397099        5.8176217985       -1.2970576906
 H        -2.4993406037        3.7356141342       -0.5928826620
 H        -3.4774193787        3.0005315175       -1.8613732660
 H        -3.5286212323        2.1501376806       -0.3780443861
 Na       -8.0890995136        1.8379774618        0.2669383950
