117

 C        -5.7111396121        3.9560553614        2.1912163163
 C        -5.3614340408        3.2157994237        1.0363053380
 O        -5.3843237215        1.9799174330        1.1355032362
 C        -4.9012159987        3.8619939508       -0.4607339311
 C        -6.0525100637        3.5466863773       -1.4088060737
 O        -7.2154062503        3.3578446407       -0.9071921169
 C        -5.9383727538        3.5371949609       -3.0121677134
 C        -6.0808991289        2.1625000959       -3.4464537765
 C        -7.3892689013        2.0317973297       -4.2652574303
 O        -8.2721056935        2.7675955661       -3.9924478724
 C        -7.5279833137        0.8542805182       -5.2980528205
 C        -6.9467235505       -0.3941721307       -4.5354933276
 O        -5.7770968073       -0.5548564319       -4.6255653745
 C        -7.9599070227       -1.2460068139       -3.6884106932
 C        -7.3491961415       -1.9227869496       -2.4370072041
 C        -7.7424602476       -1.3601741596       -1.0888265828
 O        -7.2061208176       -0.3068682663       -0.7691206488
 C        -8.5252205452       -2.0607055677        0.0479279179
 C        -9.6761170722       -1.0445213784        0.4096880540
 O        -9.2888358622       -0.1541204306        1.2122135399
 C       -11.0284208446       -0.9752580789       -0.3791300607
 C       -11.7835994857        0.2872118699       -0.2714753764
 C       -10.9850593021        1.4853102478       -0.5358054639
 O        -9.9116573843        1.5104425825       -1.1772821405
 C       -11.5278457842        2.9976670241       -0.0980234256
 C       -10.6818066092        3.5157107711        0.9849766724
 O        -9.7972072841        2.9306432926        1.6317604907
 C       -10.6933160327        4.9374814403        1.6821601019
 C       -10.4844434884        6.0724234191        0.5650795006
 C        -9.8411623024        7.3930820545        1.3507744795
 O        -8.6733514679        7.7255515433        1.2220099540
 C       -10.7652220006        8.5162330753        1.9674028019
 C       -12.2187714528        8.0048668090        2.4158082002
 O       -12.5813203251        6.9291012897        1.9073888772
 C       -13.2351835601        8.9114575694        3.1638777346
 C       -14.6246674791        8.1531964333        3.3731685389
 C       -15.6296978701        8.4651519360        2.3755433032
 O       -15.1742714554        8.9156229369        1.2927081865
 C       -17.0081000000        8.1795978845        2.7558603643
 C       -17.3782058834        6.8975900221        3.6462877769
 O       -16.5678532562        6.3398555740        4.3460944254
 C       -18.6880827144        6.1703945003        3.2505885406
 C       -17.3285575872        9.3993456781        3.7940807167
 C       -17.8637878738        8.3727372661        1.4093262292
 C       -10.0325507025        9.1235383291        3.1619723901
 C       -11.0540215028        9.5707739062        0.8425162723
 C       -11.4593824669        3.9210341398       -1.4385978179
 C       -12.9676400718        2.9884916293        0.5528715174
 C        -9.1981173482       -3.3546862082       -0.2835075317
 C        -7.5455982541       -2.3689756676        1.1355500918
 C        -9.0280588766        0.5726896923       -5.7535539650
 C        -6.7019890332        1.2328556626       -6.5618439794
 C        -4.6808268288        5.4477356729       -0.3090288461
 C        -3.6533688142        3.0725416648       -0.8456392889
 H        -4.9474986837        4.6166735368        2.4077767683
 H        -5.8408655856        3.2750755476        3.0727270621
 H        -6.6274469100        4.5867645630        2.0516537539
 H        -5.1409714973        3.9839648259       -3.3600970874
 H        -6.7437064185        4.2109901004       -3.3928678734
 H        -6.4630411526        1.5621339535       -2.6511301239
 H        -5.2353199042        1.7700463363       -4.0215047772
 H        -8.3097151742       -2.0447085973       -4.5089606211
 H        -8.7655620860       -0.5488377007       -3.3624623397
 H        -6.2110686366       -1.7892012964       -2.5076368201
 H        -7.5446847939       -2.9747739068       -2.4780789018
 H       -11.6449178780       -1.8074037778       -0.0868598971
 H       -10.5874534637       -1.0881038007       -1.4161464169
 H       -12.1448515326        0.4305395592        0.7576533615
 H       -12.7318023146        0.3045055668       -0.8651143206
 H        -9.9239123133        5.0219485583        2.3448892574
 H       -11.6199469817        5.2097220433        2.2427383373
 H       -11.4579197546        6.2929553254        0.2759430891
 H        -9.8103004049        5.7938783375       -0.1492009831
 H       -13.4232056089        9.8699358334        2.5803042456
 H       -12.7318980751        9.2978908692        4.0933898565
 H       -14.9295421682        8.3941616328        4.3506256905
 H       -14.3740845859        7.0864674838        3.5427190051
 H       -19.5506353215        6.8180299173        3.4284477284
 H       -18.7763605626        5.2947006739        4.0062405975
 H       -18.6384366754        5.7922797324        2.2143784638
 H       -18.1359265546        9.8338805823        3.3346652166
 H       -16.4849645538       10.1340117490        3.8651749510
 H       -17.4971929864        9.0995434463        4.8850968920
 H       -18.9846888688        8.4836717269        1.4991919614
 H       -17.6274943259        7.5418543941        0.7073423667
 H       -17.5868338449        9.1935041244        0.8873932220
 H       -10.2950244011       10.1745199346        3.4294369931
 H        -9.0077944793        9.2578703818        2.8645054980
 H       -10.1866361733        8.5352354168        4.0786660807
 H       -11.8305834682        9.1617711357        0.3037765331
 H       -10.2226499103       10.0010510285        0.2291475791
 H       -11.3960113770       10.5041632548        1.2383521469
 H       -10.5939671714        3.7136500378       -2.0899799108
 H       -11.4721278579        4.9122740128       -1.0385228925
 H       -12.3753869231        3.7408203090       -2.0084828136
 H       -13.6177314935        2.5076842823       -0.1408560882
 H       -13.5157954224        3.9214615796        0.8215007770
 H       -12.9127385326        2.4238668496        1.4900221750
 H        -9.5815780789       -3.8394590554        0.4734372278
 H        -8.4880974138       -4.1207744067       -0.7440862090
 H        -9.8831450385       -3.2626235885       -1.0880368007
 H        -6.9307942153       -1.4237742144        1.0744686856
 H        -6.7613778613       -3.0794704804        0.7552713908
 H        -7.9548801253       -2.5566471165        2.1239647602
 H        -9.7445265107        0.9026482222       -5.0329619868
 H        -9.1130062338       -0.4175597214       -5.9447010949
 H        -9.2977604991        0.9538359232       -6.7492849069
 H        -5.8792518588        1.9463102534       -6.2071661985
 H        -7.3397773850        1.9238359596       -7.1543392663
 H        -6.2879933008        0.3850903272       -7.1186988393
 H        -3.8394105838        5.8955798625        0.3572559790
 H        -5.7188598544        5.7592478243       -0.1788689485
 H        -4.3402255139        5.8790884979       -1.2487423614
 H        -2.7701064383        3.6399031621       -0.5864993759
 H        -3.5641483666        2.9009931926       -1.9098826253
 H        -3.7012943567        2.0668402898       -0.4842080568
 Na       -8.2200686394        1.7440104127        0.5160837904
