117

 C        -5.8421460357        4.0739934248        2.1556826238
 C        -5.3847215169        3.1247068591        1.0100943533
 O        -5.1943828112        1.9129465814        1.1150440200
 C        -5.0515071354        3.7170625560       -0.4302248652
 C        -6.2432149030        3.5507124296       -1.4943328287
 O        -7.2999434878        3.1487621950       -1.1604468482
 C        -5.7732030559        3.4872155264       -2.9367186304
 C        -6.1105954729        2.1053719876       -3.4916409267
 C        -7.5736672806        1.9589719700       -4.1713109458
 O        -8.4587896512        2.7971646412       -4.1467089925
 C        -7.6211497224        0.7639860025       -5.2088345680
 C        -7.0508908166       -0.4412935355       -4.3705879281
 O        -5.8276517562       -0.6642694490       -4.2004871233
 C        -8.0150821495       -1.3470425771       -3.5686865135
 C        -7.2413122746       -1.9921704686       -2.4679550015
 C        -7.5578883862       -1.2937742782       -1.0233839924
 O        -7.1118515208       -0.2003568771       -0.8016041755
 C        -8.5022460004       -2.0565943582        0.0635959322
 C        -9.6089886573       -1.0075466841        0.4632084258
 O        -9.3629734829       -0.0891671526        1.2726194134
 C       -10.9294827603       -1.0422320568       -0.3352183417
 C       -11.7365144367        0.3396983256       -0.1887407014
 C       -10.9146264519        1.5712601106       -0.5061617334
 O        -9.8343077927        1.4264802983       -1.0114211045
 C       -11.4800282556        3.0062617336       -0.1423955151
 C       -10.5487073030        3.6593214512        0.9566181137
 O       -10.0188497150        2.8559912343        1.6739085391
 C       -10.8021688267        5.1570673886        1.5120137246
 C       -10.4222579595        6.3955723449        0.4766889509
 C        -9.8565812144        7.6017032106        1.2385053049
 O        -8.6669608398        7.5828111375        1.1219397539
 C       -10.7539231713        8.6561578980        1.8964015592
 C       -12.1845952466        8.0924790755        2.2871455094
 O       -12.5536397191        7.0883899705        1.8034851111
 C       -13.1200481297        8.8847378915        3.2079644873
 C       -14.4556820755        8.2418381892        3.4912818917
 C       -15.5187577140        8.5334877257        2.4120717461
 O       -15.3348904758        8.9414616871        1.2588001765
 C       -17.0939929969        8.2923801159        2.7273775324
 C       -17.2772097133        6.9351239146        3.4490847021
 O       -16.4744364407        6.4735184591        4.2473361857
 C       -18.6508834796        6.3341482117        3.2010828243
 C       -17.6473686202        9.4667352875        3.7164797741
 C       -17.8907580527        8.4079025013        1.3900020272
 C        -9.7802470268        9.1930007936        3.1254408425
 C       -10.8940944196        9.7487719238        0.8835666063
 C       -11.6823772909        3.7161824498       -1.5319098150
 C       -12.8463939920        2.7828193836        0.5067183868
 C        -9.1871943155       -3.4854003063       -0.5286182944
 C        -7.5971387607       -2.3138910394        1.3110364883
 C        -9.1174612169        0.4372689352       -5.5994226313
 C        -6.7207391361        1.2177581917       -6.4319447707
 C        -4.6345694592        5.2227859502       -0.2936815023
 C        -3.7455409836        3.0095149292       -0.8872987381
 H        -4.9293884064        4.5610564550        2.6913896746
 H        -6.3672523082        3.4635028007        2.9338359032
 H        -6.4448259293        4.8520678353        1.8999897238
 H        -4.6846177487        3.7988481457       -3.1782740992
 H        -6.2518485165        4.2889520497       -3.4888317756
 H        -6.2237767897        1.4200956482       -2.7729817971
 H        -5.4644610078        1.9523527321       -4.3117291413
 H        -8.4173468996       -1.9933633849       -4.3423779332
 H        -8.7616773803       -0.6460642397       -3.0729212499
 H        -6.1651520992       -2.0191504357       -2.7626152577
 H        -7.6314935365       -3.1162059943       -2.4516394529
 H       -11.5619870440       -1.9104059423        0.0013361182
 H       -10.5712461967       -1.2059481130       -1.3807889955
 H       -12.5667354576        0.3709671039        0.5021000864
 H       -12.3091632539        0.4027405399       -1.1405652667
 H       -10.2628052997        5.3856985407        2.4621362554
 H       -11.8632721150        5.1221734273        1.7022319882
 H       -11.2413473603        6.6649947155       -0.1432475381
 H        -9.5376957834        6.1157286858       -0.1045344858
 H       -13.3534939804        9.9050532004        2.9370941768
 H       -12.4813021556        9.0730742688        4.1436821251
 H       -14.7808992208        8.5977700607        4.5028525161
 H       -14.2413021889        7.1709865394        3.7542040396
 H       -19.2911032013        7.1384328545        3.2758932242
 H       -18.9749155000        5.6378824233        3.9823422451
 H       -18.7112209586        5.8514126042        2.2485414926
 H       -18.4235476452       10.1940880485        3.3007892257
 H       -16.6516105533        9.9616259723        3.9869972794
 H       -17.9286987665        9.0662661201        4.6982159237
 H       -18.9464696226        8.8758101113        1.4565859616
 H       -18.0395072668        7.3808529044        0.9929360356
 H       -17.4009098705        8.9432618606        0.4901666487
 H        -9.9453594518       10.2458949881        3.3882166721
 H        -8.8107799687        9.2926947990        2.6157594257
 H        -9.8147554467        8.6404768784        4.0344318807
 H       -11.3917473360        9.3727907260        0.0085803718
 H        -9.9476802077       10.3218215880        0.7446568142
 H       -11.4964371175       10.5394241061        1.1707099151
 H       -10.8488288745        3.4855556587       -2.2608348375
 H       -11.7802605569        4.7906946729       -1.3550177314
 H       -12.6232628807        3.2392933875       -1.9146283817
 H       -13.4865421293        2.3154283938       -0.2530195091
 H       -13.3854124121        3.6809252240        0.6603218967
 H       -12.8474916222        2.2848169850        1.4880075434
 H        -9.8186992778       -4.0500798547        0.1854973263
 H        -8.4126918509       -4.2086551490       -0.6582613499
 H        -9.5451990732       -3.5399091903       -1.5798602588
 H        -7.2107922409       -1.3350617907        1.6345024799
 H        -6.6265203335       -2.8227515975        0.9884189714
 H        -8.1978840894       -2.7836624471        2.0964743732
 H        -9.7342774579        0.7856756294       -4.8594089907
 H        -9.2780090328       -0.6673252560       -5.7940868976
 H        -9.3555164039        0.9079269814       -6.4863177669
 H        -5.7036253927        1.4144630902       -6.0466134315
 H        -7.0300999322        2.1459617779       -6.9014961560
 H        -6.7346978483        0.4237346604       -7.1449978009
 H        -3.9256117732        5.5690491846        0.4397755503
 H        -5.4900832846        5.7904573884       -0.2500340068
 H        -4.1340129730        5.3972987653       -1.3005023388
 H        -2.9422147619        3.4521917663       -0.4148059123
 H        -3.4976894828        3.3066158112       -1.9454861399
 H        -3.7150867203        1.9663654308       -0.9537875877
 Na       -8.1544066782        1.5929029172        0.7008909575
