117

 C        -5.9287817416        4.0421802697        1.9917245720
 C        -5.3922824391        3.0369936424        0.9475895256
 O        -5.2354845495        1.8749362202        1.2312495144
 C        -5.0095840566        3.6688480369       -0.4405091874
 C        -6.2493144552        3.3041414322       -1.4883440089
 O        -7.3733919170        3.0153556751       -1.2219158872
 C        -5.8692489442        3.5549753011       -2.9032353236
 C        -6.2172699709        2.1505220744       -3.6225227459
 C        -7.6110481495        2.0060128499       -4.2299883948
 O        -8.5374763916        2.7708433458       -4.1946846083
 C        -7.7055017821        0.6069014903       -5.0514000079
 C        -7.0730466905       -0.5153483443       -4.2284521022
 O        -5.8683164929       -0.6421216091       -4.0276651786
 C        -8.0778697266       -1.4430999353       -3.3720032674
 C        -7.2442530697       -2.0893135568       -2.2407649962
 C        -7.5259750708       -1.3348949890       -0.9647931156
 O        -7.0960128348       -0.2109481013       -0.8492296666
 C        -8.4067533213       -1.9875364624        0.0600119783
 C        -9.5549425884       -0.9744428079        0.4023678794
 O        -9.4612858734       -0.2911357493        1.3474047798
 C       -10.8631731796       -1.0804604728       -0.3830955425
 C       -11.7601145572        0.2328538306       -0.2291007875
 C       -10.8266200828        1.5707421761       -0.5290244495
 O        -9.6751296105        1.4393539880       -0.8918556763
 C       -11.5728369328        2.8975347558       -0.2298866550
 C       -10.6201949723        3.7005691163        0.9861105667
 O        -9.9886136898        2.9534908040        1.7091121996
 C       -10.8374872524        5.1497485081        1.1968204830
 C       -10.4766212067        6.3064011748        0.2387852736
 C        -9.7749754697        7.5518815858        1.0447664582
 O        -8.5781568653        7.6953511415        1.1962780708
 C       -10.6579428297        8.7086305898        1.7585161457
 C       -12.0621117310        8.2249660309        2.2662406820
 O       -12.6711341624        7.3308919738        1.7077737355
 C       -12.9305844194        8.9978885500        3.2993972417
 C       -14.4379491735        8.4601544766        3.4779886387
 C       -15.4665121242        8.6468154330        2.3786955549
 O       -15.1758834300        8.9721163698        1.3060714403
 C       -17.1480112002        8.4346427461        2.7153987728
 C       -17.3194699467        7.0660037842        3.3560384389
 O       -16.4423650267        6.6006591071        4.0541959236
 C       -18.7122646189        6.3428485812        3.2456843915
 C       -17.7739613020        9.4870763129        3.6358028725
 C       -17.9062544805        8.4337207789        1.4440239214
 C        -9.7669251676        9.2263851327        3.0915291044
 C       -10.7496347397        9.9884530458        0.8829433705
 C       -11.7902998895        3.6001112250       -1.5895692091
 C       -12.8688081940        2.7407392832        0.5089163440
 C        -8.9892938661       -3.2686823899       -0.5618811975
 C        -7.7227377983       -2.3245523027        1.3830547136
 C        -9.1020614828        0.4099086038       -5.5061106062
 C        -6.8299849234        0.9647671162       -6.2472149113
 C        -4.7311594552        5.1709534562       -0.3382468694
 C        -3.7515463113        2.8717647689       -0.8460280066
 H        -5.1134882072        4.3788547692        2.6951992919
 H        -6.6871007186        3.5911700631        2.5830123348
 H        -6.3666632669        5.0117961599        1.6469545945
 H        -4.7430480134        3.8099115608       -3.1748362494
 H        -6.3523145283        4.4801192088       -3.2408364498
 H        -6.3532769937        1.3181256103       -2.8495614149
 H        -5.6069208546        2.0694689523       -4.4675591405
 H        -8.3809328722       -2.1009630821       -4.0818474686
 H        -8.8687717750       -0.8168731753       -2.9938015153
 H        -6.2019511233       -2.0195087911       -2.5626141671
 H        -7.5259980497       -3.1520243238       -2.1730370965
 H       -11.3871444863       -1.8406395079        0.3105958128
 H       -10.7352475402       -1.6005634823       -1.3180246897
 H       -12.1150994289        0.3101556467        0.8324508259
 H       -12.7424423433        0.1573178980       -0.6808076562
 H       -10.2102865504        5.5555320428        2.0998605632
 H       -11.8893095114        5.1836422055        1.4594040408
 H       -11.3922949534        6.8929446065       -0.1366630897
 H        -9.7915245236        6.0210513881       -0.6541155702
 H       -13.0426800752       10.0475421871        3.0467012033
 H       -12.3930571230        9.0750419251        4.2431304445
 H       -14.7327935611        8.4966410491        4.5890891370
 H       -14.2104683122        7.3976984495        3.4156405955
 H       -19.5747830651        7.0436195899        3.1618077934
 H       -18.9524169158        5.7769477268        4.0360612029
 H       -18.5687130853        5.7463905978        2.3846633566
 H       -18.5442682935       10.2645052122        3.2255127125
 H       -16.9716853184        9.9473805917        4.2176875329
 H       -18.2370599755        8.8517589395        4.4086152591
 H       -18.8922540217        8.8811633801        1.4313094266
 H       -18.0363472193        7.3663316653        1.1150718300
 H       -17.3443869034        8.9148292176        0.5170645151
 H       -10.2283544127       10.1401822428        3.3871514535
 H        -8.7767514480        9.5776616103        2.7715168747
 H        -9.8208757207        8.5759680781        3.9656400837
 H       -11.0442566696        9.7448561365       -0.1797519965
 H        -9.9226822269       10.5663096391        1.0171009297
 H       -11.5558901565       10.7400200653        1.1034781571
 H       -10.8167069139        3.6895615803       -2.1205202696
 H       -12.2289739671        4.6243024509       -1.4141464596
 H       -12.4530669709        2.9057483450       -2.1290601333
 H       -13.7376007960        2.2713750229        0.0335120839
 H       -13.1725466483        3.7641322795        0.5632945775
 H       -12.7671034362        2.4531337311        1.5346546637
 H        -9.8667051699       -3.6727258804        0.1489580567
 H        -8.3811274537       -4.1329215145       -0.5743306944
 H        -9.2148252146       -3.2900552277       -1.6481352688
 H        -7.6243997846       -1.4862940227        2.0347930920
 H        -6.7527830367       -2.6743248086        1.2104427458
 H        -8.4218339883       -3.0816919087        1.7863380337
 H        -9.7960839790        0.6152524761       -4.6663281646
 H        -9.3489154922       -0.5688918002       -6.0141732840
 H        -9.2435633117        1.2232833383       -6.1976782530
 H        -5.8407350955        0.6906579540       -6.1628943372
 H        -6.8373598417        2.0092029865       -6.4609464121
 H        -7.3788982967        0.5213895753       -7.0847006191
 H        -4.0721621447        5.2573448624        0.5022611566
 H        -5.5023852684        5.9101776067       -0.0825467942
 H        -4.1510021288        5.4267321432       -1.2444350687
 H        -3.0524254053        2.5798743786       -0.0410410938
 H        -3.0916171265        3.3462164220       -1.5488148184
 H        -4.1032771319        2.0069497767       -1.4344794609
 Na       -7.9191000819        1.5378795158        0.7722371445
