117

 C        -6.0952107757        3.9788376764        1.9813931751
 C        -5.5171743935        3.0395631565        0.9897463957
 O        -5.4308929679        1.8599970328        1.3049112256
 C        -4.9599798480        3.5242650643       -0.4328401559
 C        -6.1647445214        3.3607127494       -1.4396849514
 O        -7.2560112016        2.8780578667       -0.9440141773
 C        -6.0775646529        3.6453263822       -3.0074356626
 C        -6.1486984637        2.2047580952       -3.7342509327
 C        -7.5865105843        2.0208561765       -4.2188343355
 O        -8.5392361892        2.7302495324       -4.1860084586
 C        -7.8195223956        0.6389857910       -4.9801164527
 C        -7.1423588254       -0.4788585711       -4.0616631149
 O        -5.9755318572       -0.5826433059       -4.0236315768
 C        -8.0261566678       -1.5856236223       -3.2950971565
 C        -7.0364723112       -2.1580696477       -2.1707427049
 C        -7.3688100525       -1.3277498572       -0.9503136614
 O        -7.0300579798       -0.1354181698       -0.8032351682
 C        -8.4527864116       -2.0493113813        0.1681922722
 C        -9.6701147689       -1.0636069005        0.5127993377
 O        -9.5613587971       -0.2936728669        1.4515097856
 C       -10.9385615143       -1.0782947325       -0.3879860741
 C       -11.6380040072        0.1552798261       -0.2107819351
 C       -10.8436263344        1.4022924015       -0.3962902649
 O        -9.6861322741        1.4575126297       -0.8299574594
 C       -11.5741642489        2.8485915831       -0.1948499029
 C       -10.6316486695        3.6779289837        0.7320538192
 O        -9.8852303184        3.1526781722        1.5382769963
 C       -10.8544932630        5.2221734364        1.0509663905
 C       -10.4134733552        6.3777737314        0.2017642916
 C        -9.7967735842        7.5961316464        0.9936716964
 O        -8.5680587264        7.5824449396        1.0987599573
 C       -10.6616236629        8.8069146770        1.7831080400
 C       -12.1954339989        8.4667266720        2.1239163926
 O       -12.6829547617        7.4732745699        1.5330558382
 C       -12.9228540910        9.1638833381        3.3101123756
 C       -14.3743817678        8.5823265311        3.5142119029
 C       -15.4624251811        8.8834353539        2.3836215233
 O       -15.0334092100        9.0800687416        1.2495006464
 C       -17.0907760570        8.5092398082        2.7006425454
 C       -17.3017065038        7.1351424421        3.3892736794
 O       -16.4125087217        6.5407900302        3.9634751500
 C       -18.6640145454        6.3715660599        3.3307255996
 C       -17.7213159244        9.6043183102        3.7195975928
 C       -17.8319686343        8.5290754270        1.1654352382
 C        -9.9126352695        9.1348813991        2.9994514060
 C       -10.6898536621       10.0145950624        0.8485946077
 C       -11.7421014143        3.5830581443       -1.5401720066
 C       -12.9622463548        2.7501973901        0.5543780776
 C        -9.0461509755       -3.3079535688       -0.4403804868
 C        -7.7122668332       -2.3906444666        1.4877599386
 C        -9.2860043621        0.3451779957       -5.3774375505
 C        -6.7981045032        0.5964839149       -6.3097550665
 C        -4.8290042479        5.0385431945       -0.4722086437
 C        -3.7681467817        2.6727326315       -0.8808245963
 H        -5.3768394385        4.2818946101        2.6438288197
 H        -6.9813894437        3.6019128490        2.4929769770
 H        -6.4183591793        4.9717249778        1.5123928546
 H        -5.1952198091        4.0553713102       -3.3157109214
 H        -6.8190397026        4.4291051218       -3.3944960282
 H        -5.9888893123        1.3011943469       -3.0094708276
 H        -5.6463789115        2.3835043925       -4.7257505455
 H        -8.2967667714       -2.2904346249       -4.1037179379
 H        -8.8402068072       -1.0981498534       -2.9282735691
 H        -6.0380400742       -1.9318048944       -2.5295285595
 H        -7.1841948853       -3.1464145727       -2.0037815695
 H       -11.6761272509       -1.8790187159       -0.2672602851
 H       -10.5189859198       -1.2411145156       -1.4202214708
 H       -12.0222010219        0.3024395401        0.8190284898
 H       -12.6464198317        0.1464950770       -0.6725945568
 H       -10.2284269154        5.4270060082        1.8945852431
 H       -11.9620816638        5.2895108507        1.3684234232
 H       -11.2424020491        6.7950168220       -0.5274779025
 H        -9.4917066133        6.0835181423       -0.3964942059
 H       -13.1137219097       10.2579162723        3.2668902381
 H       -12.2906698527        9.0715210652        4.1568575269
 H       -14.7225312483        8.9484429501        4.4731052077
 H       -14.2321282542        7.5319728227        3.7174015348
 H       -19.5796288108        6.9635214263        3.1569732369
 H       -18.9311362389        5.8921599182        4.3340424137
 H       -18.4464006482        5.6321579159        2.5450697649
 H       -17.9975354360       10.4146922869        3.1475055279
 H       -17.1656700062        9.8328416744        4.6233809679
 H       -18.7028406862        9.1410701001        4.0331578102
 H       -18.8838252283        8.7553645063        1.2036458392
 H       -17.7602814492        7.5728495144        0.6053570751
 H       -17.4461401622        9.2321782162        0.5557404562
 H       -10.4757379852        9.8871230605        3.5622876023
 H        -8.9709818048        9.5754367620        2.7709031234
 H        -9.8846894976        8.2278200985        3.6329715756
 H       -11.0188482252        9.6988575619       -0.1247602344
 H        -9.7769519218       10.6261378832        0.8867440747
 H       -11.4727037858       10.8171350303        1.0364309249
 H       -10.8006804546        4.0182615707       -1.8781829168
 H       -12.4428555512        4.4276600310       -1.3777244771
 H       -12.1407670174        2.8417223298       -2.2105054771
 H       -13.6522415876        2.1569537139       -0.0182303752
 H       -13.4809349228        3.7443290456        0.6577160003
 H       -12.8735858797        2.3269982800        1.5380797229
 H        -9.7161207348       -3.6725742290        0.2588705604
 H        -8.4240084206       -4.2266235416       -0.7756702065
 H        -9.4531998626       -3.1220850101       -1.4282328166
 H        -7.5966697414       -1.5324266431        2.1082325331
 H        -6.7462330835       -2.7319359158        1.2781217407
 H        -8.2924233486       -3.1373783187        1.9800849423
 H        -9.9779454170        0.0163364893       -4.4988214261
 H        -9.2733531140       -0.4396438071       -6.0895333070
 H        -9.7464106869        1.3305582492       -5.8436717018
 H        -5.9266968528       -0.0283439689       -6.2235899704
 H        -6.4521444052        1.5806878758       -6.5738861319
 H        -7.4678522361        0.4057232593       -7.1206169998
 H        -4.1780072973        5.2353820750        0.4768384565
 H        -5.7057815192        5.6552702466       -0.0934790263
 H        -4.4504244162        5.4083519802       -1.4210870067
 H        -3.3346005842        1.9703946858       -0.0641532582
 H        -2.9005252948        3.2681775347       -1.1047067614
 H        -3.8874642818        2.1107650322       -1.8608745110
 Na       -7.6792450389        1.4960296741        0.7760444976
