117

 C        -6.2713849482        4.0262119968        2.0026665207
 C        -5.5771633944        3.0425490878        1.0305695361
 O        -5.5876425137        1.8397223866        1.2696965417
 C        -4.9537531758        3.4436132538       -0.3987984279
 C        -6.1718790159        3.1822286211       -1.3511861877
 O        -7.2660540892        2.8510931552       -0.9107037004
 C        -6.2472890992        3.6056577908       -2.8120430572
 C        -6.1299833038        2.4535982130       -3.8468720689
 C        -7.5994749075        1.9540894920       -4.3229579372
 O        -8.4805721638        2.7390359595       -4.1027385000
 C        -7.8833065419        0.4525578710       -5.0656822429
 C        -7.2018091944       -0.6098846962       -4.0544024253
 O        -5.9704111391       -0.4943241219       -3.9880898932
 C        -7.8444405560       -1.6749114341       -3.2263787824
 C        -7.0062680481       -2.1044628571       -2.0235138655
 C        -7.4528043632       -1.3724584967       -0.8107628009
 O        -6.9853151306       -0.2606372290       -0.6617382588
 C        -8.4895803726       -2.1735627537        0.2190186142
 C        -9.6180792784       -1.0618864736        0.5203822249
 O        -9.6308339100       -0.2790421351        1.5182858025
 C       -10.8319196736       -1.0621640524       -0.3422322416
 C       -11.7021106436        0.1640880668       -0.1013789187
 C       -10.9264335336        1.5134058014       -0.3390405764
 O        -9.8040015056        1.3840006058       -0.7391136183
 C       -11.5464765563        2.9751246795       -0.1363449291
 C       -10.6034312041        3.7524874590        0.7870860139
 O        -9.5928620103        3.2188326907        1.1876702210
 C       -10.9628116866        5.3786525061        1.1319628229
 C       -10.4097011501        6.4333947369        0.0534759036
 C        -9.8963858847        7.6100127425        0.9759880261
 O        -8.7073989239        7.6460391038        1.1118579672
 C       -10.6707783227        8.7737459176        1.7746536874
 C       -12.2744115665        8.4021276313        1.9974666071
 O       -12.8106677241        7.5784958329        1.3352915061
 C       -12.9876951088        9.2247550306        3.1024226020
 C       -14.4441808553        8.7575077310        3.4962853155
 C       -15.4681518464        8.8511756712        2.4145486395
 O       -15.0941637338        9.2723192626        1.2880804976
 C       -16.9179928541        8.5509584312        2.6488024513
 C       -17.1796135556        7.0965884558        3.2815237685
 O       -16.2760639142        6.5744492053        3.8979974733
 C       -18.5849165780        6.5445047993        3.3210505146
 C       -17.5371040973        9.6024379217        3.5178663596
 C       -17.5692802207        8.6715118202        1.2763648390
 C        -9.9269941425        9.0716577057        3.0863330157
 C       -10.6466058803       10.0202024128        0.6573896515
 C       -11.6874451255        3.5744364368       -1.5276160963
 C       -12.9434953497        2.7273913069        0.5390983999
 C        -9.1037230943       -3.4880921504       -0.3439452286
 C        -7.5952647247       -2.3848967484        1.5219869840
 C        -9.3122267666        0.2909401051       -5.2251772334
 C        -6.9930137446        0.3129055074       -6.3376845247
 C        -4.6809249453        4.9937684769       -0.5809598685
 C        -3.8073522596        2.6065589133       -0.9275441116
 H        -5.6076093036        4.5052927635        2.7293247072
 H        -7.1603851960        3.5340290389        2.4838340346
 H        -6.6668931269        4.8356877319        1.5323223563
 H        -5.5205511118        4.3272474601       -3.1405440027
 H        -7.1838832301        4.1625135629       -2.9010061555
 H        -5.8159026554        1.6206307826       -3.2744560433
 H        -5.6056258743        2.8952851809       -4.7894766145
 H        -7.9110503108       -2.5569891189       -3.9659676167
 H        -8.8642495275       -1.2776216660       -2.9951413270
 H        -6.0365430108       -1.7112996862       -2.1548036743
 H        -7.0591258876       -3.2188370707       -2.0485401028
 H       -11.3852546541       -1.9805429178       -0.4224546292
 H       -10.4492473522       -0.9421126219       -1.4018291890
 H       -12.3652863203        0.3231903114        0.7293139295
 H       -12.5013872791        0.1101022535       -0.8706313536
 H       -10.7692214506        5.7334880369        2.0853279920
 H       -12.0467730010        5.4300843640        0.8788695946
 H       -11.2473284417        6.6173682328       -0.5562735359
 H        -9.5400942028        6.1906467297       -0.5545641884
 H       -13.0641436476       10.3102382823        2.9425712730
 H       -12.3300471070        9.2113269098        4.0125233496
 H       -14.7715929216        9.4641562692        4.1927507103
 H       -14.2869431941        7.8776029688        4.1244267183
 H       -19.2819675196        7.3584156335        3.1048934660
 H       -18.8516346584        6.4209446215        4.4579661902
 H       -18.7534305470        5.6102019002        2.6653577141
 H       -17.1844029333       10.5335875667        3.1347822023
 H       -17.3879384113        9.4579875990        4.5729837760
 H       -18.5769388405        9.7073229750        3.2986347230
 H       -18.6078375676        8.5569958710        1.4719711928
 H       -17.2933588155        8.0183878381        0.5730083110
 H       -17.5082000412        9.6452698186        0.8862973602
 H       -10.3908730137        9.8466287348        3.7973295773
 H        -8.8880248878        9.3234520400        2.8616740566
 H        -9.9660174543        8.1139453932        3.5880170905
 H       -11.1955693783        9.8895977964       -0.2345003965
 H        -9.5532652751       10.4340207850        0.5561587900
 H       -11.0833142636       10.8868653559        1.0839179892
 H       -10.7476244693        4.0266522318       -1.8279023135
 H       -12.3739361458        4.3817950502       -1.4844085163
 H       -12.0537022698        2.7758744309       -2.1732843537
 H       -13.4500792012        2.0801595974       -0.1702636073
 H       -13.6342544260        3.5629802217        0.7407067498
 H       -12.8552561419        2.1032890147        1.4561118083
 H        -9.6422788984       -3.9533766768        0.4161534399
 H        -8.3477476498       -4.1933727557       -0.7048005345
 H        -9.6357481551       -3.4178720079       -1.2455121398
 H        -7.3212152159       -1.4455007221        1.9792998395
 H        -6.6561290824       -2.9503163711        1.3039090685
 H        -8.1708806173       -2.9428651284        2.2087142401
 H        -9.7565393927       -0.2451393802       -4.3736439427
 H        -9.5339305070       -0.3632304606       -6.1029841200
 H        -9.8029030939        1.2772937556       -5.2966934292
 H        -6.1138162713       -0.3949835489       -6.2212658894
 H        -6.5336730872        1.3118728588       -6.5201127993
 H        -7.5842365617        0.2326951780       -7.2145887877
 H        -4.0978059899        5.4135887224        0.3082232568
 H        -5.5607378779        5.6306666201       -0.4004959692
 H        -4.3132586754        5.1691687984       -1.6628040264
 H        -3.7377268949        1.6788983424       -0.3722266964
 H        -2.8503967796        3.1108498121       -0.5242654318
 H        -3.5758190981        2.4688594738       -1.9901598391
 Na       -7.6735015878        1.3700729162        0.8100127721
