117

 C        -6.2977220642        4.2010326853        1.7672436387
 C        -5.6935771053        3.0813640030        0.9830182429
 O        -5.5667987837        1.9108491138        1.3123855803
 C        -5.1931738583        3.3937518147       -0.4860960040
 C        -6.3329735422        3.1623038055       -1.4226064429
 O        -7.3697594246        2.6043094017       -0.9864203489
 C        -6.2942163704        3.6425555251       -2.9076322390
 C        -6.2642175956        2.4344526525       -4.0354592935
 C        -7.5990486012        1.9260256559       -4.3629861530
 O        -8.5989632566        2.5495762410       -4.1340267301
 C        -7.7490433274        0.2999637538       -4.8725903635
 C        -6.9638708053       -0.5676468315       -3.9650158108
 O        -5.8032488419       -0.4815386720       -3.7327609437
 C        -7.6843105348       -1.7729699865       -3.2822334183
 C        -7.0414516461       -2.2258643848       -1.9136622328
 C        -7.4785918322       -1.5163566095       -0.6976887341
 O        -6.8792263937       -0.4605637255       -0.3719873514
 C        -8.4570967196       -2.3214049669        0.4111452159
 C        -9.6214416358       -1.1857097995        0.6799017389
 O        -9.4931746878       -0.4136592669        1.5685776327
 C       -10.7919753326       -1.0354529340       -0.2088944997
 C       -11.7125821377        0.1673179068       -0.0346130757
 C       -10.9174755278        1.4926749305       -0.3223700011
 O        -9.7841278880        1.3725706684       -0.7176231944
 C       -11.4904277724        2.9428616607       -0.0344277981
 C       -10.4864892770        3.9795798961        0.7272969495
 O        -9.2871773259        3.7517771727        0.6441158075
 C       -11.1194322259        5.2671972033        1.1976116161
 C       -10.5975797636        6.3409987746        0.3367191697
 C        -9.9423685101        7.4576103570        1.0480025358
 O        -8.7164376484        7.5354521197        0.9280803860
 C       -10.7456475181        8.6807020760        1.6393482390
 C       -12.3550637258        8.4775256507        1.7698410909
 O       -13.0379660016        7.6583653002        1.0861983158
 C       -12.9149654991        9.3670388838        2.8098738113
 C       -14.2835497336        8.9727114084        3.2818994331
 C       -15.1680766609        9.1758863704        2.2377874201
 O       -14.9044126926        9.7045095420        1.1806609246
 C       -16.7553597544        8.6693992047        2.4984826376
 C       -16.9727645989        7.2670724699        3.1195007357
 O       -16.1142010307        6.6073408887        3.6640843978
 C       -18.4605759211        6.8511375399        3.3983111011
 C       -17.2772435444        9.7726893252        3.5923468068
 C       -17.5052912877        8.5944027107        1.1706065417
 C       -10.1191092845        9.0473247253        3.0503185334
 C       -10.7082802931        9.8869804876        0.6742012449
 C       -11.6654201752        3.6193745488       -1.5016113007
 C       -12.9051963340        2.9815376225        0.5570984705
 C        -9.1307574990       -3.6981965399       -0.0670263483
 C        -7.6127346267       -2.3775949256        1.6797042673
 C        -9.3684498607        0.1064177952       -4.7946093868
 C        -7.3433017554        0.2905857641       -6.4042938390
 C        -4.4911560555        4.8844999328       -0.4990000408
 C        -3.9603567642        2.3884822291       -0.7289633615
 H        -5.4800249872        4.8433200946        2.0426822448
 H        -6.8979942813        3.9447648943        2.6126886823
 H        -6.9871046471        4.9298326618        1.1453091790
 H        -5.4191434688        4.2465254376       -3.1685867314
 H        -7.2057102946        4.2931387339       -3.1588815062
 H        -5.6914978790        1.5858807766       -3.6258573694
 H        -6.0942395084        2.8484390879       -4.9303835088
 H        -7.6136357679       -2.6084169138       -3.9648051591
 H        -8.7354377965       -1.5883079943       -3.1085317912
 H        -5.8715027253       -2.1961329769       -1.8495562060
 H        -7.4604963003       -3.2102219540       -1.9441294387
 H       -11.3905195993       -1.9909487298       -0.0495613489
 H       -10.5740657231       -1.2845469338       -1.2498913814
 H       -12.3401341645        0.2819205130        0.8384524163
 H       -12.5489804392        0.1195599646       -0.7277225009
 H       -10.6071909783        5.4100953440        2.1850198880
 H       -12.2205030193        5.2351461970        1.2925267767
 H       -11.3640148316        6.7470771709       -0.3917389046
 H        -9.8546296522        5.9883804120       -0.3726646181
 H       -13.0041248045       10.3966834926        2.3856984501
 H       -12.2370393236        9.5361595344        3.6474260776
 H       -14.5235175423        9.4710937371        4.3054409072
 H       -14.1790512329        7.9074567492        3.5286984442
 H       -19.2674035689        7.5737064764        3.3691199571
 H       -18.3807741068        6.5029673763        4.3949078621
 H       -18.6281063845        6.0353420765        2.7863377199
 H       -16.6202959038       10.6325093074        3.7162201452
 H       -17.5306113303        9.3224815708        4.5700150191
 H       -18.0699857320       10.3817338774        3.0794447671
 H       -18.3515949990        7.8327347396        0.9796421684
 H       -16.6800334830        8.4828126909        0.3151750192
 H       -17.9350917772        9.5733893552        0.9358780365
 H       -10.4020198203       10.0658691209        3.1925777981
 H        -9.0151157989        8.9312222319        2.9574401466
 H       -10.4471336223        8.4396514089        3.9518601268
 H       -11.4796455493        9.7174327820       -0.1013885317
 H        -9.8098376717        9.9446589615        0.1602031325
 H       -10.9190025140       10.9035336576        1.1368366087
 H       -10.7130565804        3.4607435707       -2.0017583092
 H       -11.8089141232        4.7295118518       -1.5507522162
 H       -12.5196395760        3.1039544557       -1.9508297509
 H       -13.6609594224        2.3641375567        0.0526988867
 H       -13.2907041987        4.0067180136        0.5949579838
 H       -12.8785862842        2.5738042272        1.5517309514
 H        -9.8931421247       -4.0048930982        0.6452867699
 H        -8.3463533587       -4.5698381605       -0.1595489668
 H        -9.5785815974       -3.6572356056       -1.0923193156
 H        -7.0509161228       -1.3961514774        1.8420575007
 H        -6.8829358141       -3.1888051785        1.5801380247
 H        -8.2378269866       -2.5637114494        2.6233908406
 H        -9.7977195246       -0.0179897924       -3.8305817285
 H        -9.6899661328       -0.6760516665       -5.3348346260
 H        -9.6732438212        1.0737837846       -5.1847192427
 H        -6.7347547138       -0.5821499101       -6.5657623509
 H        -6.7972921131        1.1819058156       -6.7537158468
 H        -8.2470927702        0.3610366520       -7.0770729905
 H        -3.9394282629        4.8718912908        0.3915916135
 H        -5.1943408524        5.6440195015       -0.2471230886
 H        -4.1305953929        5.1103784964       -1.3784745019
 H        -4.3948418611        1.5419655309       -1.2891737158
 H        -3.4619100959        1.9703248669        0.0366567629
 H        -3.1791090384        2.7439781986       -1.3793963708
 Na       -8.1848193382        1.2410318977        0.9984465193
