117

 C        -3.9151264122        2.0531970571        8.4036376137
 C        -4.1933010575        3.5439460076        8.5046744019
 O        -3.4227461821        4.4109412745        8.0892230399
 C        -5.6241830270        4.0560985147        8.8764113200
 C        -6.1762158678        3.8858697373        7.4282480534
 O        -6.8516102292        2.8887758188        7.1592101908
 C        -5.8640230082        4.9869543522        6.3861578819
 C        -5.7324463389        4.3846037129        4.9246414643
 C        -6.4082870164        5.1933796916        3.6849862638
 O        -7.4579637887        5.7684706090        3.7936185490
 C        -5.5275800306        5.1816663732        2.3298334668
 C        -5.4886114493        3.7023190577        1.8652800789
 O        -4.4422109672        3.1027535310        1.9126471753
 C        -6.8390458475        3.0844158708        1.3589714757
 C        -6.5283946884        2.3827876976        0.0542400511
 C        -7.7946922878        1.7432024923       -0.6580631063
 O        -8.4275230129        2.3787514783       -1.5173519896
 C        -8.4947291639        0.4515483522       -0.0458252538
 C        -9.8582972154        0.7702477683        0.7542963714
 O        -9.7553824115        1.0335374548        1.9338896938
 C       -11.2342918589        0.4372307115        0.1903247735
 C       -12.2508483291        1.3806901498        0.9344766862
 C       -12.0662900651        2.7317225960        0.1766132149
 O       -10.9395128756        3.0247162883       -0.2567974816
 C       -13.3067137589        3.6367031486       -0.0460959804
 C       -13.8298288532        3.4819743073       -1.4777018219
 O       -13.1948540894        2.9080818750       -2.3542167053
 C       -15.2572139115        3.9136469637       -1.6108795252
 C       -15.8675288950        4.1989673195       -2.9737908472
 C       -15.2966443683        5.5762096469       -3.7054036886
 O       -14.9682502130        6.5565816018       -3.0580921373
 C       -15.3063318485        5.7283728680       -5.2550200384
 C       -13.7921898186        5.5084334510       -5.7065792506
 O       -13.5476109048        4.7251650484       -6.5947833467
 C       -12.6080793712        6.3747987694       -5.2074696812
 C       -11.1981342441        6.0004688003       -5.7604639633
 C       -10.6958071803        4.7035109109       -5.1270635963
 O       -10.8278277247        4.7287664822       -3.9219867689
 C       -10.2924018883        3.4367629647       -5.8057889317
 C       -11.1693474630        2.3180936499       -5.1322043027
 O       -10.7731971351        1.7118020745       -4.1277495500
 C       -12.4830517680        1.8950429410       -5.9327824229
 C       -10.4260946092        3.4448963377       -7.3202824673
 C        -8.7955614666        3.2118592777       -5.4873460754
 C       -16.2947982292        4.7147154936       -5.8998159646
 C       -15.7830391578        7.2380042514       -5.6081277605
 C       -14.3667640560        3.3229150302        1.0505381604
 C       -12.9376465607        5.0841933449        0.1088003267
 C        -8.6665790356       -0.5702557085       -1.2360370871
 C        -7.5116913724       -0.2550147377        0.9832711555
 C        -6.1988556777        6.1801207848        1.4017153083
 C        -4.0949809738        5.6926404355        2.6853424660
 C        -6.3282521394        3.0880789170        9.8451067552
 C        -5.4501475024        5.5373071368        9.3488942664
 H        -3.3746711706        2.0085519065        7.4730903363
 H        -4.8823419909        1.5860917493        8.0720293063
 H        -3.4860852464        1.6010572239        9.2737034306
 H        -4.9797974763        5.5772165954        6.7407072000
 H        -6.7528836634        5.5957667578        6.3055028669
 H        -6.1617837042        3.4548225421        5.0135043086
 H        -4.7172931280        4.2235679840        4.6081292740
 H        -7.6188655862        3.7931236160        1.1874822016
 H        -7.1095621488        2.3498583178        2.0440755663
 H        -5.8695282684        1.5482288463        0.3040180182
 H        -5.9183333941        2.9042141553       -0.6963614867
 H       -11.3662299461       -0.6630505188        0.3958137340
 H       -11.2073904057        0.5427794694       -0.9167557477
 H       -11.8534610609        1.5244777252        1.9013339721
 H       -13.2631423595        0.9172432332        1.0697021223
 H       -15.3574959101        4.8113419403       -0.9449536121
 H       -15.8604578025        3.0641415709       -1.0816406455
 H       -16.9714405405        4.3772217339       -2.8928728490
 H       -15.5693717151        3.4022924931       -3.6818072893
 H       -12.6426159878        6.5839715906       -4.1399600569
 H       -12.6763493219        7.3460140938       -5.6492304985
 H       -10.4437252232        6.7927191965       -5.5192491708
 H       -11.3188409833        6.0392164451       -6.7844796280
 H       -12.7869365375        2.8032707864       -6.5213674320
 H       -13.2281464250        1.4478657934       -5.3039650008
 H       -12.4398012589        1.0254913651       -6.6802668569
 H       -10.5206946374        4.3466320782       -7.9058460109
 H       -11.3370661776        2.8777927116       -7.4874424252
 H        -9.6335663319        2.8559465603       -7.5989490644
 H        -8.7153205629        3.3496071131       -4.4097684764
 H        -8.1288802175        3.8414986227       -6.0126990927
 H        -8.5194228215        2.1461556375       -5.7087217764
 H       -15.9497699390        3.7325390575       -5.5933389961
 H       -16.0042896153        4.7520656757       -6.9638134926
 H       -17.3657014051        4.8339647320       -5.7948837948
 H       -15.9477271872        7.2496399346       -6.6258390053
 H       -15.0100717358        7.9781898572       -5.2627714289
 H       -16.6274640448        7.4492699450       -5.0532104998
 H       -13.9983992399        3.5097209675        2.0650823765
 H       -14.7418557344        2.3034260914        0.9084666523
 H       -15.1815564050        4.0624666625        0.9961477857
 H       -12.6938476579        5.2200288110        1.1100192589
 H       -13.7676081752        5.7163807150       -0.0113641369
 H       -12.1522577571        5.3845916963       -0.5293155292
 H        -9.0124644078       -1.4612662447       -0.8459249191
 H        -7.6505289977       -0.8742685807       -1.6663049115
 H        -9.1904980962       -0.0598507325       -2.0324078130
 H        -7.3448891285        0.3961759178        1.7947004988
 H        -6.6315448413       -0.3900921919        0.4821816785
 H        -7.9055851469       -1.2412181897        1.3880587806
 H        -6.0603951272        7.1935909020        1.7133618317
 H        -7.3251667592        5.9856001215        1.4068609959
 H        -5.8824247720        6.0944127553        0.3729858680
 H        -3.8681531137        5.6374406412        3.7440187935
 H        -4.1095327711        6.8205209460        2.5181872752
 H        -3.3407526425        5.2016883423        2.0534335763
 H        -6.5490425591        2.1009620379        9.5048407605
 H        -7.3356666818        3.4660880115       10.1139104818
 H        -5.7048569461        3.0915582759       10.6908506300
 H        -4.5553804127        5.8815638513        8.8662675252
 H        -5.5381976946        5.6556157454       10.4526429758
 H        -6.2026370483        6.1532700748        8.7720756287
 Na      -10.3749009033        3.0821469882       -2.3520719000
