117

 C        -6.2848407540        4.6363975953        1.5384774290
 C        -5.9735129303        3.3198506015        0.8715344296
 O        -6.1957614835        2.2490707716        1.4353825767
 C        -5.1715800870        3.1549764082       -0.5557775341
 C        -6.3456763049        2.8875135212       -1.7224621187
 O        -7.2855639321        2.1004442350       -1.4871762757
 C        -6.1056234506        3.5134579531       -3.0936236520
 C        -6.4387417440        2.5001020003       -4.2672251407
 C        -7.8835248860        1.8387877471       -4.0341920038
 O        -8.8494273498        2.4917532890       -3.7614197981
 C        -7.8730534045        0.2554951092       -4.3608768621
 C        -7.0801636539       -0.6975359771       -3.3763477863
 O        -5.9501797004       -0.5667571829       -3.2390623904
 C        -7.6188534601       -2.0428037518       -2.7378744253
 C        -6.9155766385       -2.2814465519       -1.4624151959
 C        -7.5866764914       -1.6117682241       -0.2864934835
 O        -7.3428323671       -0.4279974676       -0.1192295788
 C        -8.5327136409       -2.3175997505        0.7089507828
 C        -9.5793676414       -1.2471840455        1.0361836431
 O        -9.2380164964       -0.4204408037        1.8149988371
 C       -10.8707827045       -1.1323363963        0.2563956817
 C       -11.6218745291        0.1174892978        0.4053462650
 C       -11.0095089703        1.2329776033       -0.3397225073
 O       -10.0211728963        1.0521244511       -1.0497707007
 C       -11.5391814898        2.7888712602       -0.2354618796
 C       -10.4740326316        3.7362147602        0.4835133552
 O        -9.3117696184        3.4180826185        0.7541356580
 C       -10.8713445557        5.1390037315        0.9740646782
 C       -10.7492543586        6.3239400319        0.0898203292
 C        -9.9020670165        7.4514442664        0.7633340098
 O        -8.6818244843        7.2554428954        0.8283948013
 C       -10.4382802076        8.7674815030        1.3973001380
 C       -11.9500465908        8.7402582664        1.8974430505
 O       -12.5970875869        7.7551488934        1.4958249632
 C       -12.7085565099        9.8219867094        2.7865513521
 C       -14.2293614987        9.4270651960        3.0875693222
 C       -15.3546834717        9.6249060796        1.9528638797
 O       -15.0188109159       10.2602831106        0.9773679084
 C       -16.8868637678        9.1509154098        2.3556396819
 C       -16.8474903546        7.6536602522        2.8663518394
 O       -15.9524849725        6.8698035810        2.6244735746
 C       -18.0664025932        7.0155109144        3.6718738917
 C       -17.5309348846       10.0862850416        3.2416135151
 C       -17.6004024111        9.0085365253        0.9835433615
 C        -9.6070305281        9.2369148745        2.5147436681
 C       -10.3015764649       10.0065247857        0.3574257051
 C       -11.8101874438        3.2628292521       -1.6411653313
 C       -12.7925668487        2.9019098114        0.6051756336
 C        -9.1751474745       -3.5122058078        0.1055022352
 C        -7.6209081195       -2.7208119267        1.8951837991
 C        -9.3449903391       -0.0613330591       -4.3266440510
 C        -7.2630348148        0.1063419691       -5.7454978405
 C        -4.4695913402        4.5346116619       -0.8609890792
 C        -4.4391014837        1.8560118763       -0.4750181448
 H        -5.5116979950        5.3369983631        1.4116831863
 H        -6.5689704566        4.5941567367        2.6520262487
 H        -7.1639755530        5.1738281726        1.0588339034
 H        -5.0905658079        3.6617134320       -3.2323386737
 H        -6.7050563553        4.4597691470       -3.2771234910
 H        -5.7143006977        1.7156250573       -4.2135140090
 H        -6.5756798467        2.9514306137       -5.1757430540
 H        -7.4383388106       -2.8050859933       -3.5635673699
 H        -8.7067821278       -2.0512697967       -2.6354598710
 H        -5.7449433972       -2.1247877921       -1.6847956410
 H        -7.0372929207       -3.3443203063       -1.2274861975
 H       -11.5433263305       -1.9490000160       -0.0945923366
 H       -10.4972114697       -1.1126746977       -0.7894472846
 H       -11.8969536588        0.4448113008        1.3746285640
 H       -12.6589045765        0.1034984450        0.0444000856
 H       -10.0747079386        5.2408147269        1.6682839647
 H       -11.7848192901        5.0483533945        1.6561864682
 H       -11.5943181739        6.7724993248       -0.3481303764
 H       -10.2452091725        5.9233678433       -0.7275341873
 H       -12.8719210848       10.7961665546        2.2320023825
 H       -12.3022376949       10.1157618037        3.7639451874
 H       -14.4009264575       10.3438106647        3.7859682604
 H       -14.2618345220        8.5240191456        3.6875504734
 H       -18.6661261561        7.6819725886        4.1885880629
 H       -17.5823761953        6.2055512768        4.3261230199
 H       -18.6933626633        6.6228480907        2.9037085295
 H       -17.5827202723       11.0499357016        2.8606379203
 H       -16.7692148333       10.2249514948        4.0429447826
 H       -18.5271395593        9.7548947863        3.6950943080
 H       -18.7105772879        8.6680077783        1.0810861565
 H       -17.1577834101        8.0895929454        0.5472877242
 H       -17.4640196847        9.7771073888        0.2589717894
 H       -10.2301289898       10.0360098787        2.8913312273
 H        -8.6245586224        9.5714906780        2.1948950850
 H        -9.4642045854        8.3520122516        3.1925629109
 H       -10.7138504219        9.8297353190       -0.5511655209
 H        -9.2582476390       10.0885746849        0.0097838862
 H       -10.7798459391       10.8461687675        0.8161762757
 H       -10.9155444127        3.5689792100       -2.1684107398
 H       -12.5534796193        4.0664444135       -1.6128094691
 H       -12.3300646136        2.4994186648       -2.2051224715
 H       -13.7191005232        2.5116594343        0.1637368917
 H       -13.0574614907        3.9839292645        0.7321975674
 H       -12.6799598925        2.4221690519        1.5753468852
 H        -9.9458824635       -3.8455056526        0.6721164301
 H        -8.4296355649       -4.3933108803       -0.0303976482
 H        -9.7071517730       -3.1134012610       -0.7645795805
 H        -7.3076457827       -1.7882631639        2.4261038826
 H        -6.8138522232       -3.3936630710        1.6380467055
 H        -8.1721807852       -3.3132269610        2.6355295690
 H        -9.5451420257       -0.1687048623       -3.2897401923
 H        -9.6980307687       -0.8220627753       -4.9303581427
 H        -9.8370852942        0.8911822176       -4.5843176177
 H        -7.9352714903       -0.3564223906       -6.5133742490
 H        -6.2327984046       -0.3146558481       -5.6483544351
 H        -7.0250995469        1.1277948417       -6.1617052432
 H        -4.0612798135        4.6557425452        0.1802123084
 H        -5.1875101885        5.2657737480       -1.0661642333
 H        -3.6573523838        4.5232371356       -1.5372947697
 H        -4.4689493095        1.1782681492       -1.3484522499
 H        -4.5729295459        1.3725158282        0.4280912390
 H        -3.3727090374        2.0019580946       -0.4071651493
 Na       -8.0623722501        1.2745884299        0.3553037042
