117

 C        -6.2269589763        4.7169195239        1.3481777237
 C        -5.9919879240        3.3515148270        0.9102454734
 O        -6.3706013498        2.4322412249        1.5766128919
 C        -5.2177418664        3.1386767828       -0.4281557136
 C        -6.1678193050        2.9249834971       -1.8169750577
 O        -7.0994916730        2.2196786616       -1.6241466499
 C        -6.0830146266        3.5324190242       -3.1706580798
 C        -6.4461125731        2.5058588381       -4.3113269302
 C        -7.7770857959        1.7872034894       -3.9519181470
 O        -8.8041364048        2.3366124419       -3.6340937066
 C        -7.9311677010        0.2414239234       -4.3415513609
 C        -7.0746883468       -0.7166004560       -3.3227507754
 O        -5.9118341046       -0.3779425378       -2.9928947141
 C        -7.7537589634       -1.9825337571       -2.7540591866
 C        -7.0217986104       -2.4340950484       -1.4787699964
 C        -7.5384506589       -1.6761358265       -0.2385978770
 O        -7.0891921439       -0.6100114845       -0.0167512751
 C        -8.5606386931       -2.4282789239        0.7647536889
 C        -9.4698246317       -1.1500073452        1.1177168152
 O        -9.2513027720       -0.1898844939        1.8766968869
 C       -10.8741791652       -1.2301322083        0.4218124118
 C       -11.7060990087        0.1197971947        0.4430822876
 C       -11.0176163472        1.2342934568       -0.3447851173
 O       -10.1812272143        1.0138378728       -1.1854507823
 C       -11.6022162543        2.8138290726       -0.2268240906
 C       -10.4587846791        3.7606136471        0.5380609410
 O        -9.3765157961        3.2839606049        0.7522173972
 C       -10.8779449619        5.1776858196        0.9783764146
 C       -10.6729609297        6.4121936091       -0.0251771749
 C        -9.8305794108        7.5129051722        0.7368877108
 O        -8.6384776953        7.2825626200        0.8778325581
 C       -10.4813784854        8.9106996881        1.3904666597
 C       -12.0503931295        8.6628024958        1.7243521588
 O       -12.5620068152        7.6188113164        1.6279088956
 C       -12.6298493651        9.9133889274        2.4574089498
 C       -14.0805247602        9.6562636656        3.1062713264
 C       -15.2706357907        9.7222572488        2.0441781227
 O       -15.0786052337       10.2789724240        0.9601090221
 C       -16.7062487098        9.1268628055        2.3612960207
 C       -16.7850720763        7.6552987023        2.7625800194
 O       -15.9229805788        6.8961263781        2.3361523924
 C       -17.9511076252        7.2276801299        3.6261981987
 C       -17.5070837645       10.2089980747        3.2744522490
 C       -17.5181665441        9.0753523052        0.9285860146
 C        -9.5823781131        9.2321356896        2.6374457703
 C       -10.4540767498        9.9539896614        0.1653017111
 C       -11.7453998047        3.2664142414       -1.6881850599
 C       -12.9369233578        2.7926194426        0.6474914324
 C        -9.2372654527       -3.6666304710        0.1078623095
 C        -7.5924217270       -2.8814384615        1.9146820512
 C        -9.5564181497       -0.2547105039       -4.1596049304
 C        -7.3073990053       -0.0650438790       -5.7687605056
 C        -4.4302639350        4.3877867536       -0.9414183836
 C        -4.3450047886        1.8282672172       -0.3860642151
 H        -5.3755243732        5.4577454478        1.3236999510
 H        -6.6944623679        4.7648036813        2.3827969447
 H        -6.9393382965        5.1826679664        0.7224780199
 H        -5.1221611581        3.7850774989       -3.5241724943
 H        -6.7764106239        4.4242111955       -3.2193328325
 H        -5.6621286646        1.7472824954       -4.4085194978
 H        -6.7229683200        2.9752333137       -5.3626036689
 H        -7.6627071555       -2.6235959005       -3.6370485986
 H        -8.7985088686       -1.8541531394       -2.6669956900
 H        -6.0043759817       -2.0096405008       -1.6356675416
 H        -6.8410590430       -3.5297585384       -1.3387893975
 H       -11.4682265087       -2.0087509918        0.8765806954
 H       -10.9949102357       -1.8369270631       -0.5062427485
 H       -11.6015395135        0.5643599699        1.4266077513
 H       -12.8072134891        0.2022783542        0.4591493489
 H       -10.3265159625        5.3350205848        1.9480613385
 H       -11.9738142253        5.1334027094        1.3211338355
 H       -11.6231593669        6.8892192767       -0.3577864865
 H       -10.2426097805        6.0082007339       -1.0196944681
 H       -12.6449988858       10.8715183035        1.8693691669
 H       -12.0044324265       10.0770028690        3.3111077674
 H       -14.2338834563       10.3355572582        3.9704472263
 H       -13.9800958701        8.5560951356        3.4868061166
 H       -18.3135353898        8.0506226127        4.1488548141
 H       -17.6606559989        6.4056869760        4.2133469080
 H       -18.7640209219        7.0729744691        2.9789530860
 H       -18.1188725880       10.9571417358        2.7594891326
 H       -16.8385306171       10.8660074052        3.9231795958
 H       -18.0842002272        9.5559602649        3.9542097786
 H       -18.6014748160        9.2772992386        1.1179719503
 H       -17.5859845088        8.0593152511        0.4595589816
 H       -17.0385501740        9.8134030255        0.0862168822
 H        -9.9427763315       10.2219542541        3.0577851586
 H        -8.5155275347        9.2613491473        2.3859193342
 H        -9.7931013612        8.3325795985        3.2401163686
 H       -11.2819639519        9.7334851498       -0.4944052736
 H        -9.6451573648        9.6912304101       -0.5800988251
 H       -10.5412471315       10.9347043628        0.5093208178
 H       -10.8273073384        3.3848420809       -2.2996543878
 H       -12.3670311692        4.1396482893       -1.6601226306
 H       -12.4158022284        2.5540873287       -2.2090160613
 H       -13.8528794360        2.3851858366        0.2706514341
 H       -13.2307706112        3.8450911577        0.8580550871
 H       -12.7218885481        2.3130201238        1.6245234537
 H       -10.1395449946       -4.0253874137        0.7387212588
 H        -8.5212991516       -4.4308160074        0.1025140709
 H        -9.7696242533       -3.3573712641       -0.8700172149
 H        -7.2604919461       -1.9339267771        2.3911405529
 H        -6.7022286804       -3.5260696798        1.5402811419
 H        -7.9928325171       -3.5427806975        2.6913656432
 H        -9.7679924572       -0.2520842303       -3.1411378740
 H        -9.7542699300       -1.1857825439       -4.7348171821
 H       -10.1448747506        0.4425167013       -4.6402541342
 H        -8.0018765620       -0.7919377199       -6.3253086538
 H        -6.2610822069       -0.4424691000       -5.6027299227
 H        -7.2129461788        0.7754211386       -6.4593013756
 H        -3.7806825812        4.5457889003       -0.1447001236
 H        -5.0755395406        5.1300584551       -1.2311987893
 H        -3.6630413565        4.0958728267       -1.7046500986
 H        -4.1022312684        1.4625680614       -1.3038567917
 H        -4.6419543058        1.0249175404        0.3233156024
 H        -3.3883764709        2.0463432139       -0.0111712057
 Na       -8.3363908326        1.3085046777        0.3736230061
