117

 C        -6.1933639110        4.9447141787        1.1590689791
 C        -6.0844927756        3.4296724951        0.8169779232
 O        -6.5433355870        2.5204397933        1.5009050737
 C        -5.1782030100        3.1611563800       -0.5747378719
 C        -6.2020269221        2.8092604360       -1.6966504573
 O        -7.1497861568        2.0724664171       -1.5417251252
 C        -5.9939272279        3.4963831483       -3.1588459395
 C        -6.4463271366        2.4292667636       -4.2342578532
 C        -7.8236987269        1.6684556580       -3.9930127784
 O        -8.7847494077        2.2934670666       -3.5612527810
 C        -7.9663133963        0.1205590266       -4.2361754571
 C        -7.1507183008       -0.6377597754       -3.2128761283
 O        -6.0385761674       -0.1479052133       -2.8747518204
 C        -7.7105774056       -1.9324569110       -2.7049312852
 C        -7.0489821185       -2.6977990528       -1.5097565225
 C        -7.3463644385       -1.8296377139       -0.2685689772
 O        -6.7869495310       -0.8187223200        0.0834276571
 C        -8.5262112963       -2.3524274366        0.7227975481
 C        -9.6011350216       -1.3036392650        1.2253330480
 O        -9.1696961279       -0.2737233333        1.8240253105
 C       -10.9818902676       -1.2498691157        0.6846957874
 C       -11.6526674778        0.1644479292        0.7013552555
 C       -11.0744387014        1.3376585185       -0.3395025837
 O       -10.3498696503        0.9987221681       -1.2513557719
 C       -11.6311857148        2.7792496176       -0.1637543343
 C       -10.6054195068        3.7065358748        0.4600855563
 O        -9.4942868252        3.3212839988        0.7554001093
 C       -10.9169414560        5.1935301119        0.9480710400
 C       -10.5334907785        6.4268574918       -0.0202098960
 C        -9.8265042840        7.5080597294        0.7509144054
 O        -8.6566949495        7.3924024993        0.9334524288
 C       -10.5691145616        8.7811424794        1.2290246091
 C       -11.9578547077        8.6130172020        1.7956122020
 O       -12.5964495778        7.5631607798        1.7484529613
 C       -12.6905663577        9.8814243504        2.1905539947
 C       -14.0585490284        9.6883221162        2.9810281080
 C       -15.1451934392        9.7948535202        1.9774576684
 O       -15.0052030000       10.3645475559        0.9285429767
 C       -16.6072189267        9.1946084544        2.2947310145
 C       -16.6220078614        7.7433060077        2.7590875197
 O       -15.9402405970        6.9274045573        2.1682715761
 C       -17.7994197253        7.2528586615        3.5991686261
 C       -17.3092294326       10.3609866540        3.2380160169
 C       -17.4110745468        9.2436211925        0.9149902316
 C        -9.6824636112        9.2409458270        2.5112201621
 C       -10.5333207708        9.8129093046        0.1038283573
 C       -11.7799529016        3.3297206545       -1.6044534920
 C       -12.9336380226        2.6968347821        0.5475117098
 C        -9.2586679031       -3.6037255974        0.2231676181
 C        -7.7017307217       -2.8849694381        1.9658022386
 C        -9.4316819778       -0.2406931151       -4.2194708254
 C        -7.5151949450       -0.2806977078       -5.6690612060
 C        -4.1363404170        4.3354033052       -0.8886915791
 C        -4.2724363852        1.9074771487       -0.3450139831
 H        -5.2209443721        5.4849123845        1.3469109779
 H        -6.7014812900        5.0590896183        2.0257359600
 H        -6.6869871610        5.5832206140        0.4406845510
 H        -5.0799232182        3.8604460689       -3.7525765994
 H        -6.7329095981        4.2450262239       -3.2083363872
 H        -5.6479154268        1.5914321380       -4.4571581218
 H        -6.7411263371        2.9678976248       -5.2608095126
 H        -7.8348794092       -2.4422964778       -3.6310569360
 H        -8.7514940587       -1.7086289987       -2.4300812506
 H        -6.0350144136       -2.8823723296       -1.5634530425
 H        -7.4335608745       -3.7251029263       -1.4658662314
 H       -11.6353635339       -1.9253234448        1.1726871810
 H       -11.2233992825       -1.8196918376       -0.1859758926
 H       -12.0412853129        0.5988841943        1.6633739057
 H       -12.6565833843        0.0362936502        0.2554911525
 H       -10.4316143516        5.1982557162        2.0090820972
 H       -11.9346610686        5.3487097197        1.1580191450
 H       -11.5164221441        6.7237518404       -0.5500899018
 H        -9.8760608521        6.1049774466       -0.9435323253
 H       -12.9682919226       10.3663649977        1.2619762826
 H       -12.0715938824       10.5415083765        2.7976844083
 H       -14.2741844490       10.4260374884        3.7547122229
 H       -14.0332649341        8.6616015041        3.4395694074
 H       -17.9787405114        7.9086689647        4.4792613135
 H       -17.6291505804        6.2587992333        3.7633901737
 H       -18.6875291758        7.5318008021        3.0319150857
 H       -18.1578949647       11.0137630707        2.7713386734
 H       -16.6888212339       11.1536655249        3.6901371546
 H       -17.6399518989        9.7487382755        4.0330735621
 H       -18.4030751903        9.6295749534        1.0979925552
 H       -17.6138035143        8.2826703484        0.3570766473
 H       -16.8265297845        9.9042357291        0.2401086674
 H        -9.7734695340       10.3390498327        2.5730687925
 H        -8.6102183508        9.0079528062        2.2856741653
 H       -10.0720055303        8.6399450581        3.3327383026
 H       -11.5270614259        9.9841730949       -0.4972371301
 H        -9.9198868191        9.5311434851       -0.6837766578
 H       -10.2867431625       10.7296214627        0.6656713183
 H       -10.8538691700        3.0496891171       -2.1605901197
 H       -11.9740199417        4.4100952086       -1.5958768977
 H       -12.6310515016        2.8897821514       -2.1780251177
 H       -13.5731899927        2.0116903600       -0.0222510094
 H       -13.4565455840        3.6001680880        0.3925894742
 H       -12.9936860160        2.4101973147        1.6030425491
 H       -10.1141333241       -3.8508915035        0.9889240899
 H        -8.5761759290       -4.4124217936        0.3039233527
 H        -9.8029124850       -3.4909331977       -0.7060276491
 H        -7.1958340721       -2.1697431988        2.6063508038
 H        -6.9834488012       -3.6507215968        1.5740793878
 H        -8.3295207983       -3.5692999846        2.5882322774
 H        -9.9632141816        0.2072451829       -3.3547766880
 H        -9.5518479780       -1.3198262578       -4.4345432178
 H        -9.7289755262        0.0783183480       -5.2082616113
 H        -7.9546889409       -1.2063722167       -5.9812813247
 H        -6.4322084257       -0.2304974351       -5.7594273532
 H        -8.0045434032        0.4003595911       -6.3784812627
 H        -3.3952120487        4.2078861539       -0.1202722086
 H        -4.7133835665        5.3010317418       -1.1145676661
 H        -3.4410863322        4.0958336422       -1.7002095162
 H        -3.5277831214        1.6464417730       -1.0721142681
 H        -4.8671325062        1.0008927597       -0.1116170515
 H        -3.6761039349        2.0138589679        0.5555563549
 Na       -8.4571132884        1.4569452065        0.3830571563
