117

 C        -5.7241773881        5.4727477819        0.5771034644
 C        -6.0448874649        3.9706459526        0.4573108656
 O        -6.8520858292        3.3253065255        1.1852964968
 C        -5.1963497418        3.1222275998       -0.5307986540
 C        -6.1561153313        2.6293932671       -1.7551567174
 O        -7.0476596324        1.8188685249       -1.6478930195
 C        -5.9186860175        3.1782981528       -3.1292350671
 C        -6.3498167065        2.0763732814       -4.1128736655
 C        -7.8470967015        1.6155456413       -3.9704291808
 O        -8.7212544228        2.4583349250       -3.9336160242
 C        -8.2076473170        0.0431898037       -4.0396165443
 C        -7.5141059361       -0.7905641971       -2.8225642529
 O        -6.4869873168       -0.4759831769       -2.2909567949
 C        -8.1117559130       -2.2293227546       -2.3823539032
 C        -7.1801570351       -2.7077890393       -1.2155233128
 C        -7.2988470611       -1.9659983780        0.0846646131
 O        -6.4961776486       -1.1974972566        0.5156707585
 C        -8.6828231871       -2.4678992838        0.9450811244
 C        -9.4853225081       -1.1547274930        1.2202346122
 O        -8.7819445143       -0.2162574706        1.7904119712
 C       -10.9042661006       -0.9457185677        0.9296199545
 C       -11.3595760915        0.4881144629        1.2098068596
 C       -11.3619704564        1.3182367184       -0.0149692646
 O       -10.5004070757        0.9129427208       -0.7582800195
 C       -12.0003992237        2.7093678857       -0.1408590740
 C       -10.9389550132        3.6645998378        0.6127611197
 O        -9.8144493330        3.1887700879        0.8130565514
 C       -11.2589559626        5.1008406139        0.9492302727
 C       -10.4581349766        6.1003763866       -0.0392063639
 C        -9.7133933999        7.2697322805        0.7614725819
 O        -8.5765632534        7.0147009944        1.0688685463
 C       -10.3103711487        8.5940001457        1.0920115200
 C       -11.7900753703        8.5021755737        1.7578965824
 O       -12.2069879741        7.4095804942        2.2531812689
 C       -12.4849507921        9.8252216720        1.9811866231
 C       -13.9850316835        9.6299530797        2.3834959828
 C       -15.1441576265       10.1629721117        1.3962653150
 O       -14.9640633456       10.5818007436        0.3121191302
 C       -16.6407544966        9.7438180825        1.9819059495
 C       -16.4514561646        8.1209347643        2.3429633419
 O       -15.7031310120        7.3872423379        1.7453949970
 C       -17.3081893487        7.5598331216        3.5818678612
 C       -16.9426148680       10.5815809377        3.1379094361
 C       -17.8121306262        9.8940310511        0.9480489483
 C        -9.3108559652        9.5230016627        1.8628744990
 C       -10.4770090495        9.1382369275       -0.3707715528
 C       -11.9338703927        2.9545757736       -1.7181731294
 C       -13.4393941690        2.7201237858        0.3924202304
 C        -9.5649250840       -3.5692123853        0.2958296334
 C        -8.1731355119       -2.9534001721        2.2777427375
 C        -9.8272328391       -0.1850027630       -4.1801774099
 C        -7.5041624645       -0.4779651292       -5.4005428751
 C        -3.9776034644        3.8605139517       -1.0896274749
 C        -4.6023748740        1.9934125580        0.3153429925
 H        -5.0743805235        5.8044819688        1.3481976078
 H        -6.6072094978        6.0481987030        0.8145188425
 H        -5.2709364448        5.9304391339       -0.3657244744
 H        -4.7934484660        3.4212207600       -3.3663120208
 H        -6.4513727479        4.0532532146       -3.4041856969
 H        -5.6980074190        1.1161464815       -4.3282486349
 H        -6.3906716458        2.2784700875       -5.2375756049
 H        -7.9865354347       -2.9808326662       -3.1018976006
 H        -9.1910909081       -2.0674765120       -2.2027645569
 H        -6.1941928536       -2.9156055680       -1.5767205421
 H        -7.4471382508       -3.7724464916       -0.9854348266
 H       -11.5256183728       -1.5507179474        1.6162360545
 H       -11.2766705911       -1.4925915716        0.0389263828
 H       -10.7294403987        0.8067757469        2.0968921054
 H       -12.3762300694        0.5571781456        1.6064563312
 H       -11.0937853479        5.5841116099        1.9881738598
 H       -12.3252193025        5.2796787907        0.9208818505
 H       -11.2287119731        6.4667248316       -0.8201716782
 H        -9.5768475546        5.5692455138       -0.5374612644
 H       -12.4843063157       10.5231190686        1.1555227857
 H       -12.0814489730       10.2474830882        2.9144938124
 H       -14.2483604420       10.1345572946        3.3197958559
 H       -14.2140821669        8.5396800046        2.5554116916
 H       -16.9277816229        6.5972910984        3.7102324078
 H       -18.3757916142        7.5454879838        3.2975773897
 H       -17.0882198272        8.0332110931        4.4685375836
 H       -17.8059735243       10.2931111782        3.7973890359
 H       -17.1709365379       11.6165123099        2.9181266931
 H       -15.9502041038       10.7248331676        3.5192498147
 H       -18.6335184054        9.0695834845        1.2067149959
 H       -17.4869151807        9.8720827876       -0.1630076500
 H       -18.2083010062       10.8825471170        1.0671380856
 H        -9.5786201760       10.5585983072        2.0369109399
 H        -8.4512445666        9.5246737137        1.1541240339
 H        -9.2318046931        9.0065014181        2.8209806556
 H       -10.7649601104        8.3272628365       -1.0935895690
 H        -9.5799831731        9.6079148862       -0.6240172207
 H       -11.2700590562        9.9400923990       -0.4617434376
 H       -10.8959296018        2.8861804707       -1.9729246189
 H       -12.3873108070        3.8554441695       -2.1190445451
 H       -12.2500247304        2.0846590620       -2.2707852662
 H       -13.9611519653        1.8853085891       -0.1581696407
 H       -13.9210767342        3.6344309593        0.0961909142
 H       -13.6605430030        2.6660437761        1.4711683958
 H       -10.4145804690       -3.7098280377        0.9644827992
 H        -9.0024672026       -4.5723352838        0.0075383511
 H        -9.8580902428       -3.1418038032       -0.6828716775
 H        -7.3037182377       -2.3763086957        2.6614454952
 H        -7.6966865154       -3.9350807907        2.1782272421
 H        -9.0252554227       -2.9342149405        3.0335088302
 H       -10.2581447210       -0.1655739711       -3.1910396703
 H        -9.9726135482       -1.0560573649       -4.7142075829
 H       -10.2671801358        0.6429222752       -4.7391090758
 H        -6.4171232950       -0.5258441328       -5.3075998692
 H        -7.5509335879        0.3366074779       -6.1844776543
 H        -7.9084421003       -1.5031587621       -5.7215755784
 H        -3.4344145337        4.2432023302       -0.1541985173
 H        -4.1754244159        4.6670915227       -1.8297251155
 H        -3.3081042042        3.2079743436       -1.5533908960
 H        -4.0827937007        2.2384539142        1.2539176386
 H        -3.9255173010        1.3847731910       -0.1510889395
 H        -5.4064199668        1.4100554831        0.6709989997
 Na       -7.9889342920        1.4636339291        0.3458298448
