117

 C        -5.6394267972        5.5364271266        0.4911497278
 C        -6.0209016170        4.1293749665        0.3218237675
 O        -6.8226764849        3.6383561959        1.0886867604
 C        -5.2034935620        3.1315616652       -0.5611349146
 C        -6.1409738433        2.5827123550       -1.8063909595
 O        -7.1158983936        1.9142619934       -1.5020181887
 C        -5.9660766398        2.9390927529       -3.1745863405
 C        -6.3226249911        2.0215793380       -4.2271804828
 C        -7.8313359075        1.5422855207       -3.9850473883
 O        -8.6703500914        2.3964341750       -3.9602764739
 C        -8.1296120150       -0.0014360329       -4.0038234303
 C        -7.4778404606       -0.8353513958       -2.7931550042
 O        -6.5009158533       -0.4579264162       -2.3618386003
 C        -8.1716744112       -2.1200695643       -2.2258521113
 C        -7.2574948109       -2.8906074417       -1.2458192979
 C        -7.4288730855       -2.1342364490        0.1688794939
 O        -6.7213935492       -1.2457763236        0.5441064271
 C        -8.6992743915       -2.4317037363        1.0471803830
 C        -9.4532374224       -1.1027127146        1.3943572498
 O        -8.8459364804       -0.1794077998        1.8398922178
 C       -11.0326312159       -1.0436319117        1.2883274820
 C       -11.4959461386        0.4603732795        1.3772921573
 C       -11.1883706964        1.1944424198       -0.0292158848
 O       -10.3179943943        0.9781745718       -0.8648629729
 C       -11.9625831235        2.5646999147       -0.2003366545
 C       -10.9314320243        3.5812233398        0.5414777339
 O        -9.8363674721        3.2150849059        0.8834620061
 C       -11.1154189499        5.1195008740        0.9565726161
 C       -10.4589373116        6.0059825388       -0.0016331023
 C        -9.6564195720        7.0837682093        0.7702666262
 O        -8.5650923154        6.7597973841        1.2337536194
 C       -10.2289329650        8.5616317819        0.9424495302
 C       -11.6629725763        8.6135577334        1.8099196615
 O       -12.0807496320        7.5986445982        2.2870132878
 C       -12.4326349348        9.9266001084        1.7898089824
 C       -13.9104933157        9.6598031381        2.3457207105
 C       -15.0891548024        9.9662537804        1.3317369212
 O       -14.8859306226       10.5663163843        0.2787080949
 C       -16.5046812218        9.7838182221        2.0706985097
 C       -16.5651706279        8.2754963220        2.2835718042
 O       -15.9032097615        7.5522332534        1.5429861504
 C       -17.2908612892        7.5778028556        3.4804189897
 C       -16.8827767883       10.7354173527        3.2150680338
 C       -17.8095748829        9.8575607832        0.8799544194
 C        -9.2320854993        9.4648814639        1.6147789963
 C       -10.5229049416        9.2509087151       -0.5293776410
 C       -12.0741530000        2.9483746441       -1.6728773184
 C       -13.4569671209        2.5731289824        0.3282380826
 C        -9.6591408038       -3.4165632925        0.3511458927
 C        -8.1355976715       -3.0774680353        2.3532385475
 C        -9.6898377107       -0.1171039755       -4.0917761757
 C        -7.6250742948       -0.5756964949       -5.3058894242
 C        -3.8918078437        3.8546876218       -1.0668949640
 C        -4.8476010115        1.8795320403        0.3756727009
 H        -5.0291890289        5.7690746476        1.2694926510
 H        -6.5777413085        6.0479529611        0.8090087391
 H        -5.2293100600        6.0353245901       -0.3427339586
 H        -4.9578229237        3.1974731472       -3.3310396036
 H        -6.5104525233        3.9378936333       -3.2861759984
 H        -5.7651819780        1.0749478077       -4.1295814610
 H        -6.1181264216        2.1008741472       -5.2738886293
 H        -8.4753333971       -2.7661465143       -3.0117506398
 H        -9.0324758621       -1.7056976754       -1.7455988610
 H        -6.2364534542       -3.0385318093       -1.6507123643
 H        -7.4922484010       -3.8795823870       -1.0489106592
 H       -11.7446664778       -1.7703210536        1.7177302866
 H       -11.1844377831       -1.3651043642        0.2673085808
 H       -10.8065708278        0.8558533754        2.2021658138
 H       -12.5403846499        0.7778455832        1.6883089380
 H       -10.8421542785        5.4439665320        1.9054897049
 H       -12.2136948187        5.3851428417        1.0115615899
 H       -11.2763730972        6.5880770312       -0.6192529800
 H        -9.7273859746        5.4455343653       -0.6719617566
 H       -12.6318620647       10.3069288970        0.8186767141
 H       -12.1242727465       10.7271761174        2.4832844813
 H       -14.1755879986       10.2630180338        3.2541195681
 H       -14.1251844659        8.6524651443        2.5589902940
 H       -17.3141539841        6.5735994535        3.1384402409
 H       -18.3278698245        8.0045615387        3.7056022097
 H       -16.6187271460        7.5311312358        4.3197332001
 H       -17.6672049561       10.3007011568        3.7351313873
 H       -17.2204337527       11.7145656740        2.8948932832
 H       -15.9495687915       11.0621562173        3.7673987350
 H       -18.6320198454        9.1395897620        1.0762465862
 H       -17.3837249629        9.7167145391       -0.0595473633
 H       -18.1746528070       10.9091906611        0.8473942885
 H        -9.6948509409       10.4242594032        1.8256524336
 H        -8.4450843833        9.6311317560        0.8760115184
 H        -9.0480493666        9.0167141275        2.6327038655
 H       -10.8455959268        8.4713556962       -1.1446776639
 H        -9.5935088225        9.8619458652       -0.8856382934
 H       -11.3691624156        9.9850116317       -0.6112243175
 H       -11.1599659755        3.2793152968       -2.1707005957
 H       -12.8539350937        3.7397822342       -1.7628572331
 H       -12.3021583021        2.1062256256       -2.2828081655
 H       -13.9923574187        1.7338610641       -0.1318177049
 H       -13.9843393690        3.5188072593        0.1253697048
 H       -13.5612717640        2.4831808314        1.3948117854
 H       -10.4692601283       -3.5101272755        0.9852190336
 H        -9.1749726338       -4.4057406842        0.1126752237
 H        -9.8902876715       -3.0175184407       -0.6369778151
 H        -7.3870685003       -2.4288967133        2.8805916377
 H        -7.5022813913       -3.9260848266        2.1224189276
 H        -9.0185405498       -3.2647309435        3.0314707107
 H       -10.0659877417       -0.0661103456       -3.0548948674
 H       -10.0283752499       -0.9719465125       -4.6820206402
 H       -10.0276899702        0.8851561715       -4.5109868623
 H        -6.7093623967       -0.1062261936       -5.6545182509
 H        -8.2920821562       -0.2381696684       -6.1235774099
 H        -7.5541929941       -1.6820775736       -5.2272521663
 H        -3.3208745981        4.0375113028       -0.0401986887
 H        -4.0343016784        4.8376532222       -1.5944992940
 H        -3.2212438540        3.2263421214       -1.7763311899
 H        -4.9989879084        2.1114569033        1.4481477732
 H        -3.8258019775        1.5962702703        0.4057283535
 H        -5.5162554849        1.0323447742        0.2908094734
 Na       -7.9710855622        1.5957182311        0.3426206003
