117

 C        -5.4623053340        5.5651120437       -0.1193790437
 C        -5.9699982321        4.1883344620        0.1396246320
 O        -7.0843169566        4.0166252187        0.6625315090
 C        -5.1863509392        2.9945173183       -0.6284527011
 C        -6.1702373286        2.5752374689       -1.7911002161
 O        -7.2792743868        2.0992040837       -1.5057799350
 C        -5.7027216314        2.7854892600       -3.2860294782
 C        -5.9842701875        1.5810232042       -4.1104829776
 C        -7.5809855096        1.3506522429       -4.1024387709
 O        -8.2717396565        2.3066118141       -4.3846226525
 C        -8.2429879512       -0.0194456509       -3.9587429671
 C        -7.8040063722       -1.0085623006       -2.9029665558
 O        -6.5189564095       -0.9682108789       -2.6965245589
 C        -8.6428664918       -2.0302615142       -2.0513734998
 C        -7.7158827346       -2.7167169905       -1.0005883005
 C        -7.7643856191       -1.9308918252        0.3913656487
 O        -6.9641742542       -1.0712488982        0.7183999965
 C        -8.8608399946       -2.4183570334        1.5333127074
 C        -9.7138275136       -1.0179676177        1.9913598154
 O        -9.1173052590       -0.0779782089        2.3251287856
 C       -11.2855796933       -1.0898104638        1.9858092021
 C       -11.8879455646        0.3177956993        1.7324194233
 C       -11.2863981849        1.0044365157        0.6163049331
 O       -10.3909165559        0.4725588425       -0.0361868131
 C       -11.7900291268        2.4065244578        0.0789136044
 C       -10.9446654119        3.6797806329        0.7919444373
 O        -9.9184592606        3.5152289919        1.3964572389
 C       -11.5201962337        5.0667149763        0.6647218220
 C       -10.7199697554        6.0163859798       -0.2432345991
 C        -9.8881145232        6.8827301971        0.7319752075
 O        -9.1303523677        6.4395223418        1.5773155126
 C       -10.0329981856        8.5278637366        0.4618165989
 C       -11.2145073137        8.9153698978        1.4444471972
 O       -11.3295529350        8.2428742689        2.4733945648
 C       -12.2843262623        9.9804022802        0.9907215159
 C       -13.5128220580        9.8380818217        1.8265797045
 C       -14.8569796911       10.1385360202        0.9823708528
 O       -14.8940261268       10.3742874722       -0.1671222344
 C       -16.2138017366        9.9777801395        1.7568265276
 C       -16.6691796873        8.4289732543        1.8736713835
 O       -16.5093029224        7.5841314312        1.0301300231
 C       -17.3794276609        8.0457501271        3.1400883419
 C       -16.0125855014       10.7176559347        3.1640593960
 C       -17.3253955209       10.6496639675        0.9071463788
 C        -8.7607915319        9.3875640232        0.8892028828
 C       -10.4009496357        8.7702425282       -1.0366516342
 C       -11.4218282998        2.5416906544       -1.3901874651
 C       -13.2630953135        2.6499156678        0.3419968275
 C        -9.7352399375       -3.5090745501        1.0109755785
 C        -8.1134029798       -2.9338247092        2.8114941530
 C        -9.8133955669        0.1418893664       -3.9591910208
 C        -7.7060795100       -0.7323180656       -5.3800169802
 C        -3.7912380570        3.1944590594       -1.1712191483
 C        -5.1667031094        1.8095319900        0.5386574478
 H        -4.4353958217        5.8310551193        0.2362344791
 H        -6.0204253994        6.2605989771        0.3520053253
 H        -5.4305259501        5.7939657533       -1.1434249740
 H        -4.7377685649        3.1523116744       -3.6464150562
 H        -6.4060278595        3.6084020818       -3.5712718216
 H        -5.5148326674        0.6981727731       -3.8340695101
 H        -5.5828711430        1.5963471858       -5.0694303058
 H        -8.9934510336       -2.9182583945       -2.5929015761
 H        -9.4438573910       -1.5741225663       -1.5505652129
 H        -6.7189435424       -2.8569635272       -1.3047152988
 H        -8.0302951253       -3.7957104815       -0.8966469413
 H       -11.6244317352       -1.4779877486        2.9603181074
 H       -11.7030255808       -1.6218267563        1.1240100389
 H       -11.6174741890        0.9654278901        2.6256042674
 H       -13.0222643053        0.1460960837        1.5319800422
 H       -11.5221814962        5.3194101203        1.7671294256
 H       -12.5471588024        5.0964447003        0.3582459443
 H       -11.4822610106        6.6114679356       -0.7782812888
 H        -9.8791634518        5.5758555238       -0.9000018891
 H       -12.4489656259        9.7341933983       -0.0803157028
 H       -11.7631260517       10.8733435916        1.1995670204
 H       -13.5345413395       10.5596640690        2.6223706775
 H       -13.3654893566        8.8671417167        2.2991137177
 H       -17.2905685373        8.8684772950        3.8854225052
 H       -17.0114213271        7.0997283514        3.3918193454
 H       -18.4861153290        7.8759006079        2.9861525854
 H       -16.9272514921       10.6305751394        3.8124467054
 H       -15.7248380596       11.7753413377        2.9844823942
 H       -15.3926280086       10.1771323601        3.7713071663
 H       -18.2937374880       10.5316943401        1.3646018003
 H       -17.3204830067       10.2883996633       -0.1385369477
 H       -17.1684006491       11.6455903528        1.0142402414
 H        -9.0885862638       10.4562354131        0.6829453973
 H        -7.9230522161        8.9474372674        0.3441081946
 H        -8.5258446713        9.2134756629        1.9336382333
 H       -11.5511267569        8.7735657551       -1.3534346983
 H        -9.7801389252        8.0878922826       -1.5890413784
 H        -9.9776851144        9.7693261030       -1.2231782360
 H       -10.3769792968        2.2682316321       -1.5431874153
 H       -11.4019362766        3.5529098672       -1.7445891777
 H       -12.1068409614        2.0115390129       -2.0754355486
 H       -13.8768412732        1.8364101029       -0.0161570905
 H       -13.6099101975        3.5422732130       -0.2285227823
 H       -13.4556985052        2.7881127442        1.4412092057
 H       -10.4414862839       -3.8482251871        1.8023074340
 H        -9.0581640544       -4.3429120393        0.8646326291
 H       -10.1485908642       -3.1511173619        0.1211122334
 H        -7.1716462634       -2.3719231411        3.0584981731
 H        -7.8476774128       -4.0676257054        2.7606416400
 H        -8.6805795291       -2.8273561390        3.7553214775
 H       -10.3052970382        0.2547364194       -2.9516616058
 H       -10.1198505803       -0.9151696679       -4.1916400343
 H       -10.1254866569        0.9331247178       -4.6247017977
 H        -8.3368683289       -0.4432125391       -6.2848087340
 H        -7.7211696578       -1.8274617998       -5.1951399173
 H        -6.6715393374       -0.5761826117       -5.7208482201
 H        -3.2063322416        3.5976006482       -0.3707630785
 H        -3.7037229662        4.1821829688       -1.8324335564
 H        -3.6205122941        2.2697882814       -1.7464218943
 H        -5.3641509439        0.8274596238        0.1773213853
 H        -5.8381485281        2.0001463166        1.3860130140
 H        -4.1542042894        1.6908939217        0.9545398513
 Na       -8.1328115125        1.7929212785        0.6896125349
