117

 C        -5.4893978362        5.5141325835       -0.2309718757
 C        -5.9035528507        4.1313722917        0.1598946464
 O        -6.8856002092        3.8707879903        0.7502391181
 C        -5.2048126245        2.7867262959       -0.4454814228
 C        -6.1698319927        2.3623953427       -1.7095633487
 O        -7.1630838511        1.7439061221       -1.4490657164
 C        -5.8251333491        2.6201490495       -3.1712157354
 C        -6.1039616843        1.2831838779       -3.9563810895
 C        -7.6537949452        1.2765248618       -4.1654073632
 O        -8.3081356280        2.2469274445       -4.5460347242
 C        -8.2952489431       -0.1249522902       -4.1623999587
 C        -7.6323939795       -0.9783032613       -2.8650604217
 O        -6.5194025014       -1.2621651300       -2.7723101252
 C        -8.6880765882       -1.7145839862       -2.0846554931
 C        -7.9494086177       -2.5224421608       -0.8836610266
 C        -7.9898696591       -1.6838726619        0.5042915826
 O        -7.2685038688       -0.7347627267        0.8039419606
 C        -8.8955966283       -2.1359194944        1.6580582515
 C        -9.7633998244       -1.0197931763        2.1273848755
 O        -9.2149067272        0.0600942822        2.5165369126
 C       -11.2810309132       -1.0879856997        2.1198859518
 C       -11.8418228009        0.4517115658        2.1487937594
 C       -11.2327028347        1.0906977133        0.7870031381
 O       -10.3084239896        0.5574926875        0.1870642126
 C       -11.7527976238        2.3853420666        0.2308237752
 C       -11.0409994009        3.5134435425        0.9437463944
 O        -9.9392979874        3.2920882999        1.3985744844
 C       -11.6347044035        5.0289469772        0.8461290499
 C       -10.7177544639        5.8345506299       -0.0966501358
 C        -9.8458690867        6.8592420487        0.6300292558
 O        -9.0079086151        6.5062555320        1.3676642919
 C       -10.0079605833        8.4335948131        0.2949780135
 C       -11.1526930990        8.9175417861        1.2984737746
 O       -11.2655528316        8.6177768811        2.4339946450
 C       -12.1915794278        9.9846588139        0.7062631646
 C       -13.4949837409        9.7948436370        1.5238524855
 C       -14.8376338798       10.1514586354        0.7379917593
 O       -14.8660523098       10.2156511366       -0.5048091384
 C       -16.0846861505       10.2558198129        1.7768817079
 C       -16.5945525303        8.6815586051        1.7537525748
 O       -16.4288293582        7.9202721525        0.8462965543
 C       -17.4114003847        8.1328630190        2.9116767988
 C       -15.7248770599       10.8390039023        3.1184014310
 C       -17.4048858743       10.8144594220        1.1271780707
 C        -8.5961117153        9.0287617723        0.8273666231
 C       -10.2314157370        8.9296229639       -1.3017680332
 C       -11.2283158267        2.4568703791       -1.1805209447
 C       -13.3427429475        2.3156081740        0.1611315553
 C        -9.7704256547       -3.3909145493        1.3398898903
 C        -8.0106494995       -2.3646063545        2.9755053531
 C        -9.8381608638       -0.1077566210       -4.0968515153
 C        -7.9852683838       -0.7977641226       -5.5549037659
 C        -3.7199509138        3.2150738750       -0.9306521080
 C        -5.1832691648        1.7370741034        0.4909013068
 H        -4.7540239813        6.0872291338        0.3381183094
 H        -6.4048351932        6.2094915277       -0.1781403407
 H        -5.1494261465        5.5643800139       -1.2889021439
 H        -4.8292624649        2.8965039623       -3.2789005998
 H        -6.4019752123        3.4620392327       -3.5934940081
 H        -5.6989426861        0.3173778704       -3.5266215527
 H        -5.7427428308        1.1847606363       -5.0776565108
 H        -9.2694990681       -2.4930478405       -2.5884950167
 H        -9.2921445095       -0.8231059531       -1.6646733116
 H        -6.8195912911       -2.6345990149       -1.2056185762
 H        -8.2836838045       -3.5201273275       -0.7495964485
 H       -11.6054983728       -1.4751407866        3.0844669977
 H       -11.5727377386       -1.5664016325        1.1893736478
 H       -11.3283410594        0.7036655425        3.0609537841
 H       -12.8876671583        0.4508081664        2.1021222071
 H       -11.6217095628        5.4523278797        1.8455172409
 H       -12.6727228414        5.0059916543        0.3585575144
 H       -11.3583900412        6.3583642120       -0.7530463701
 H        -9.9964509911        5.3594654558       -0.6934927616
 H       -12.1529389416        9.8010810270       -0.3352202625
 H       -11.7992120107       11.0143210157        0.9937092346
 H       -13.3442293332       10.3691090603        2.5402086422
 H       -13.6699503601        8.7611612993        1.9004289067
 H       -16.6830024115        7.9216413531        3.6944512995
 H       -18.0600500059        7.3325865979        2.4879944418
 H       -18.0336391032        8.9150987904        3.3608921064
 H       -16.5273470825       11.0799633044        3.7012507648
 H       -15.2091316750       11.7321311136        2.8770065573
 H       -15.1992279236       10.0490372611        3.7275952882
 H       -18.2076977389       10.2949284354        1.5710752543
 H       -17.4067159148       10.4137010536        0.1210788728
 H       -17.6761431899       11.9240726970        1.3593513613
 H        -8.7449428893       10.0565547784        0.9127976443
 H        -7.8343661992        8.7197379354        0.1530566339
 H        -8.2930562831        8.4519598153        1.7033406468
 H       -10.7955525392        8.2117384106       -1.7567001632
 H        -9.2440624849        8.8094260705       -1.8294985096
 H       -10.6704565390        9.9057809909       -1.3570696321
 H       -10.2394143862        2.9191224154       -1.2746023398
 H       -11.8155513925        3.0644342274       -1.9127170602
 H       -11.3006883696        1.4940279216       -1.6402416412
 H       -13.6368966783        1.3639559686       -0.3136361746
 H       -13.8245486861        3.0312656671       -0.4972662293
 H       -13.7443066586        2.3414068337        1.1473627283
 H       -10.3842075003       -3.5679916237        2.2336115859
 H        -9.0921154886       -4.1812527888        1.2542694083
 H       -10.5628359030       -3.1857916443        0.5367709976
 H        -7.4964696828       -1.5192909360        3.3466400483
 H        -7.3843407366       -3.1810229840        2.8309462999
 H        -8.5899103845       -2.7387070525        3.8201841359
 H       -10.2432565252        0.1985628111       -3.1388123201
 H       -10.2466296395       -1.1368295671       -4.1439677863
 H       -10.1609839277        0.5931129317       -4.8982155901
 H        -8.8348349798       -0.8214094655       -6.1626332959
 H        -7.5011373307       -1.7194550534       -5.4665704429
 H        -7.3605032437       -0.2036305544       -6.1642563504
 H        -3.1791962624        3.4891977385       -0.0351888692
 H        -3.7483243543        4.0611545128       -1.4856053030
 H        -3.3372121194        2.3899721668       -1.4994896731
 H        -4.5200369177        0.8986976633        0.2208337051
 H        -6.2143015541        1.2949180148        0.6377451547
 H        -4.8242816241        2.0875645115        1.5118813954
 Na       -8.3407631951        1.6615480829        0.5436362149
