117

 C        -5.7925978808        5.2174990823       -0.0383749717
 C        -6.0272316560        3.7234001557        0.1949629984
 O        -7.0710507484        3.4347992023        0.7422817615
 C        -5.0885194152        2.6241965351       -0.3884751019
 C        -6.1361926104        2.0453709985       -1.6003186124
 O        -7.1874220876        1.5002225878       -1.4939518169
 C        -5.6007010908        2.2862374723       -3.0844642661
 C        -6.1192550419        1.3090699682       -4.2113810558
 C        -7.7063648975        1.1299873101       -4.2339806553
 O        -8.4666159577        2.0753053639       -4.2613148107
 C        -8.2961858627       -0.3694642538       -4.2233875572
 C        -7.6974511319       -1.2562214437       -3.0793916190
 O        -6.6096860707       -1.7061250801       -3.1408240379
 C        -8.7446378963       -1.2787242495       -1.9200321975
 C        -8.1966343037       -2.1212774344       -0.6836981492
 C        -8.2054210087       -1.3922996401        0.6692966215
 O        -7.7818507636       -0.2619253006        0.6366847172
 C        -8.8158393082       -1.8684163092        1.9908192526
 C        -9.6609744175       -0.6824059488        2.6163474322
 O        -9.1060702827        0.3783065862        2.9923913750
 C       -11.2324337490       -0.7749050786        2.6798178956
 C       -11.9347682908        0.5292022050        2.0394885398
 C       -11.2968254653        1.0126743379        0.6383721921
 O       -10.6129412854        0.2092596102        0.0676086505
 C       -11.7767839165        2.3349232995        0.0515684110
 C       -11.0230786681        3.4729307563        0.8312913831
 O       -10.0424602095        3.1849518628        1.4804223546
 C       -11.6443915010        4.9096857654        1.0102832258
 C       -11.0804094026        6.0435337248        0.0473390041
 C        -9.8082506906        6.8261791095        0.4965924346
 O        -8.8935148309        6.3522357137        1.0024768723
 C        -9.9148641106        8.4038514113        0.1847344620
 C       -11.0699598860        8.9627926213        0.9918198509
 O       -11.0016476090        8.9738301904        2.2149121434
 C       -12.4222591071        9.4049273386        0.1720080315
 C       -13.3581231571        9.8582344143        1.1851431275
 C       -14.7346330996       10.3163784796        0.6465547076
 O       -14.8841930205       10.4397264663       -0.5728382996
 C       -15.9865492174       10.3797615190        1.5544211810
 C       -16.5709104701        8.8452946936        1.6723067123
 O       -16.1518168574        8.0627286179        0.8720810169
 C       -17.4774620068        8.1968707526        2.8010774737
 C       -15.8187957710       10.8356365897        3.0276734316
 C       -16.8369444711       11.3875856220        0.8759564297
 C        -8.6533861394        9.1233176925        0.7256354067
 C        -9.8669771725        8.5049785289       -1.4196479693
 C       -11.4447408777        2.5672356337       -1.4546356801
 C       -13.3131276756        2.6417456831        0.2463619539
 C        -9.6816197282       -3.2754550518        2.0005045196
 C        -7.5838790506       -2.2434505432        2.8826833225
 C        -9.8232663781       -0.2345840688       -4.3067441933
 C        -7.9566089557       -1.1804130665       -5.4779021223
 C        -3.7966553005        3.1840515639       -0.9348777731
 C        -4.8492584187        1.5902329734        0.7533747481
 H        -4.8892264917        5.6080969054        0.1907887699
 H        -6.5279219300        5.8180719044        0.4830544712
 H        -5.9394009328        5.4907006143       -1.0648458424
 H        -4.4725772315        2.0642753699       -3.1533605070
 H        -5.7139264323        3.2931572550       -3.4464601575
 H        -5.8307498097        0.3151708195       -3.9607499249
 H        -5.7908848239        1.5900301523       -5.1564105800
 H        -9.6347140056       -1.7240043150       -2.3198020190
 H        -8.8586986840       -0.2481586307       -1.5065464524
 H        -7.1704259493       -2.2709537703       -1.0322748074
 H        -8.7068864966       -3.0702378437       -0.5082227585
 H       -11.3605414129       -0.5720453445        3.7072413508
 H       -11.7265477660       -1.6223116727        2.1815672270
 H       -11.6623282367        1.3304361886        2.7527012267
 H       -12.9562326542        0.1687848869        1.8768429828
 H       -11.1897013605        5.1985668187        1.9719861902
 H       -12.7168563401        4.7585714761        0.9460710389
 H       -11.8212801964        6.9048808095        0.0239911555
 H       -11.0771079530        5.6977871799       -0.9828495693
 H       -12.9281253697        8.5139679230       -0.2070364880
 H       -12.1320478937        9.9834955319       -0.6862147256
 H       -13.0203984892       10.7120670133        1.7347521938
 H       -13.4735939672        9.2164354309        2.0201189830
 H       -17.8285665787        7.2796804368        2.2716883121
 H       -18.2875117950        8.9496793252        3.0808448071
 H       -16.9272574332        7.8481121818        3.6593690131
 H       -16.7705539797       10.8390253617        3.5291859027
 H       -15.5326023984       11.8774792643        3.0114282442
 H       -15.0491172989       10.1830301994        3.6054816770
 H       -17.6744031360       11.6576651293        1.4066237751
 H       -17.1103813460       10.9580341887       -0.0172010967
 H       -16.1600010399       12.2311339461        0.6776933514
 H        -8.6053620099       10.0111633616        0.1168973806
 H        -7.6836031314        8.5651190453        0.5665265862
 H        -8.7854705580        9.1971770142        1.8514130324
 H       -10.8129013467        8.3046608426       -1.8458782726
 H        -9.3190128141        7.6510213558       -1.8673071219
 H        -9.4155497276        9.5305458827       -1.5970231526
 H       -10.4712596011        2.2043075957       -1.7251617037
 H       -11.3679824444        3.6256402253       -1.7024081097
 H       -12.1601173425        2.2183370546       -2.1977958979
 H       -14.0415020740        1.9747613932       -0.2708840240
 H       -13.4889802565        3.5798333955       -0.2528294508
 H       -13.4897884142        2.7380168989        1.3185731752
 H       -10.0004656288       -3.4414528803        2.9539632505
 H        -8.9758078706       -4.0394759098        1.7153170739
 H       -10.6007251491       -3.2259634090        1.4507896589
 H        -7.0425012241       -1.3230799648        3.2295629955
 H        -6.8746147477       -2.9916822323        2.5564215199
 H        -7.9187566763       -2.7278418604        3.8737064662
 H       -10.2493326181        0.2388223731       -3.3858904565
 H       -10.3590575943       -1.1718497823       -4.4165952016
 H       -10.1263505469        0.3238603656       -5.2583052317
 H        -8.8678479514       -1.6990908930       -5.7987918935
 H        -7.1855153487       -1.9979237505       -5.3189966771
 H        -7.7097291971       -0.5819642911       -6.4221187545
 H        -3.1786703663        3.7279212240       -0.0752207707
 H        -4.1867172938        3.7677577584       -1.7412973582
 H        -3.1558297809        2.3138785137       -1.3338246478
 H        -3.8023924962        1.2466837385        0.8814970788
 H        -5.4110503114        0.6806053781        0.4816743305
 H        -5.3336523724        2.0139557446        1.6096985231
 Na       -8.3384134450        1.7798374083        1.0973208740
