117

 C        -5.8355597314        5.1677964057        0.0305979294
 C        -6.1349460610        3.7009192069        0.1402984587
 O        -7.0610436811        3.3613815052        0.7979235375
 C        -5.2314712925        2.6487001658       -0.5410236258
 C        -6.0088620243        1.8959052936       -1.6488509896
 O        -7.0951359566        1.4332839946       -1.3867813453
 C        -5.5138704667        2.0506502285       -3.0952127311
 C        -6.1947520072        1.0233123269       -4.0822025851
 C        -7.7233248291        1.0502045055       -4.1462585193
 O        -8.4227591229        2.0819776658       -4.1186920473
 C        -8.3118143060       -0.3894571532       -4.3017392276
 C        -7.7858420606       -1.2270729164       -2.9696515568
 O        -6.8068641438       -1.8962618602       -2.9981297800
 C        -8.6985207510       -1.2415511632       -1.8432453281
 C        -8.3205652550       -2.0615286278       -0.6065852105
 C        -8.3532516243       -1.2515997360        0.6732480447
 O        -7.7001265660       -0.2391733319        0.7459606416
 C        -8.8067896839       -1.7844161801        2.1188578014
 C        -9.6202814255       -0.6140445753        2.7160089164
 O        -8.9990551420        0.4403370602        3.1118087496
 C       -11.1402490022       -0.6013520866        2.6867633003
 C       -11.8892351075        0.6062625130        2.0726618933
 C       -11.4632696938        0.9034402229        0.5893364727
 O       -10.7416140358        0.2573328372       -0.1156417322
 C       -11.8189255259        2.4809421309        0.0468215254
 C       -10.9716545048        3.4416739380        0.8661341135
 O        -9.9849189860        3.1751660033        1.5196597656
 C       -11.5798916572        4.9319896661        1.0192358413
 C       -11.1992733810        6.1048577610        0.1888618392
 C        -9.8320036227        6.8197892851        0.4937775111
 O        -8.8199667278        6.2328320202        0.8688658674
 C        -9.8334650789        8.3175854566        0.1485851304
 C       -11.0446266327        8.8843647988        0.8161403024
 O       -11.0317229195        9.1292081954        1.9644362027
 C       -12.4657315126        9.1662319693        0.1949825132
 C       -13.2676572550        9.9120659634        1.2312023339
 C       -14.7109800891       10.3781214217        0.5693195725
 O       -14.7798803315       10.5674974458       -0.6219142554
 C       -15.9786223635       10.3957363931        1.5299255662
 C       -16.5072646733        8.8221250027        1.6231403009
 O       -16.0889697122        8.0673288303        0.7896665870
 C       -17.6110700377        8.4876105439        2.6440616683
 C       -15.5731401074       10.9034851282        2.9900717135
 C       -17.0257517416       11.3997356154        0.8315429078
 C        -8.5564601095        8.9788904333        0.6679310542
 C        -9.9167380994        8.4188103337       -1.4154217823
 C       -11.4625425577        2.4496837958       -1.3882901813
 C       -13.3905075028        2.8228068164        0.2381397558
 C        -9.6479719594       -3.1302639683        2.0319048352
 C        -7.4681289675       -2.0084369981        2.8778494873
 C        -9.8267022822       -0.3147640401       -4.3771471291
 C        -7.7893140606       -1.0893945986       -5.7130280816
 C        -3.8560734396        3.2278457595       -1.0110144071
 C        -4.9746352233        1.3987587616        0.6714982508
 H        -4.7501856473        5.5651796836        0.0487121002
 H        -6.3852668012        5.7591755835        0.7134334252
 H        -6.1789311034        5.5283198851       -0.8922636237
 H        -4.5498379907        1.9254089787       -3.2642941790
 H        -5.7477153909        3.0659039443       -3.4366424393
 H        -5.9719230173       -0.0422490949       -3.8657851214
 H        -5.9559363685        1.3960212576       -5.1456337934
 H        -9.5797836164       -1.7667551184       -2.2776272325
 H        -8.9439739917       -0.2470294472       -1.3171704412
 H        -7.2901914391       -2.5861681475       -0.6700921935
 H        -9.1075779737       -2.7511667682       -0.4381606657
 H       -11.3497082447       -0.4922523278        3.7632653562
 H       -11.6430011359       -1.3737342667        2.1229926964
 H       -11.6335437135        1.5159154894        2.5900197450
 H       -12.8285105222        0.2082789663        2.0555102651
 H       -11.2068550877        5.1714681590        1.9655612293
 H       -12.7043606482        4.6918998215        0.8712231604
 H       -11.9282036180        6.8557493676        0.2377154047
 H       -11.2672371394        5.7807575485       -0.7947636538
 H       -13.0826637377        8.3876271888       -0.1592124782
 H       -12.1666832420        9.7287794718       -0.7144148248
 H       -12.7322709409       10.8596004131        1.5448215766
 H       -13.3090394785        9.4906591110        2.2039322944
 H       -18.5797802999        8.1403082023        2.1646223341
 H       -17.6189501293        9.2151798433        3.4100942257
 H       -17.0628124819        7.5046679955        3.0241542952
 H       -16.3590795051       10.9088233973        3.6621257029
 H       -15.3815978456       11.9532746398        2.7857315676
 H       -14.6363283043       10.4674302765        3.4105992083
 H       -17.8974406204       11.3916384164        1.3676876568
 H       -17.2170785051       10.8661723559       -0.1104548999
 H       -16.5921320135       12.3492363662        0.6166968349
 H        -8.4236180399        9.8324605255        0.0003230465
 H        -7.6686988480        8.3682577222        0.4365621462
 H        -8.6248553758        9.1226415910        1.7700384142
 H       -10.8935655714        8.1837287277       -1.7335814204
 H        -9.3570452183        7.5283103007       -1.8929026967
 H        -9.5220559983        9.3792199451       -1.6711173630
 H       -10.6775613404        1.7281826786       -1.6885449051
 H       -11.1459134070        3.3977708509       -1.8754282828
 H       -12.3301901747        2.1885719921       -1.9675037439
 H       -13.9542697565        1.9639076906       -0.1815309054
 H       -13.7502981391        3.7295707972       -0.3135648410
 H       -13.5834375487        2.9138540520        1.2934375017
 H        -9.9319060638       -3.5444953891        3.0305329819
 H        -9.1686393335       -3.7709014056        1.4553620607
 H       -10.6245314741       -2.8844396441        1.5839620905
 H        -6.8284758829       -1.0999329264        2.7769523082
 H        -6.9093233497       -2.8917067802        2.4911043680
 H        -7.4328820662       -2.2483901375        3.9632868198
 H       -10.3219803696        0.0501277793       -3.4331146794
 H       -10.2110685224       -1.4544875823       -4.4909298569
 H       -10.2530368161        0.1194773004       -5.2928305986
 H        -8.2373608866       -2.1256339157       -5.8369104992
 H        -6.7213009469       -1.2603331343       -5.7293106819
 H        -8.0947369680       -0.5138803795       -6.5943743546
 H        -3.1818537814        3.4302984938       -0.2986715845
 H        -4.2815349289        3.9691912944       -1.6468711567
 H        -3.4047237819        2.4808331714       -1.6876794064
 H        -3.9152357356        1.3210953974        0.6236575028
 H        -5.3501068023        0.3263893766        0.4207226626
 H        -5.3751912348        1.7992173510        1.6919548016
 Na       -8.3644645571        1.7655608423        1.3526790711
