117

 C        -5.8542390285        5.0691072400       -0.0570784780
 C        -6.1131085179        3.6394670576        0.1995328423
 O        -6.8989450886        3.3578296807        1.0501175757
 C        -5.2157999757        2.5379363114       -0.4071676984
 C        -6.0070349157        1.8926277647       -1.6021815243
 O        -7.1027318268        1.4619525820       -1.4189110706
 C        -5.4215227773        1.8434035818       -3.1015367664
 C        -6.0646805440        0.6420435833       -3.8499411868
 C        -7.6204250189        0.7540063427       -4.0007348791
 O        -8.2618686829        1.7860513044       -3.6437935441
 C        -8.3603701955       -0.6291324029       -4.3515016237
 C        -8.1940551258       -1.5396762304       -2.9306673171
 O        -7.3392685348       -2.3528687994       -2.9688481527
 C        -9.1654228519       -1.1569463219       -1.8195713386
 C        -8.7686986684       -1.9937165691       -0.5654594483
 C        -8.2596614449       -1.2420393954        0.6655336878
 O        -7.4930342492       -0.2562521606        0.5059082254
 C        -8.7513025010       -1.5392926096        2.2109841911
 C        -9.6680632003       -0.4276203464        2.8640176274
 O        -9.0804350310        0.4530505290        3.5191993183
 C       -11.2481478333       -0.4702403626        2.6607354319
 C       -11.5757864209        0.9848723956        2.3585383757
 C       -11.5695378713        1.1140172472        0.7861868669
 O       -11.2959546940        0.1864288422        0.0741323075
 C       -11.9271815193        2.5194309392        0.1809815431
 C       -11.0088639821        3.5053635099        1.0271126403
 O        -9.8772951037        3.1224111602        1.4000833861
 C       -11.6565813310        4.8392271944        1.3559358011
 C       -11.2806520837        5.8941576553        0.1102828521
 C        -9.9704423492        6.5733133682        0.2702283414
 O        -8.9908948669        5.9303509556        0.5048015586
 C        -9.8420525721        8.0620436203       -0.0566115521
 C       -10.9171105231        8.8977393516        0.8272480155
 O       -10.4957457819        9.4815605011        1.7724135880
 C       -12.2325089688        9.4474173316       -0.0744275943
 C       -13.3901368873        9.8993553572        0.8282200297
 C       -14.6586248803       10.5205008939        0.3375287095
 O       -14.6592751323       11.0142325343       -0.7574451801
 C       -15.8751132895       10.6124941226        1.2882651663
 C       -16.4540857648        9.1551086733        1.4514323251
 O       -15.9609642910        8.1533680979        1.0185346355
 C       -17.7094204772        8.6645306093        2.3875671371
 C       -15.5391248691       11.1705283966        2.6533820977
 C       -16.9528115760       11.6500023274        0.5566547767
 C        -8.4237332201        8.5669643019        0.3190800050
 C       -10.1108471126        8.2439676409       -1.6383132696
 C       -11.4085075310        2.7768877099       -1.2065066571
 C       -13.5084688750        2.6282047290        0.2301703647
 C        -9.4494649491       -2.8814264992        2.3376190991
 C        -7.4592156976       -1.5603897253        3.1262028543
 C        -9.8516359254       -0.2827705861       -4.6770238313
 C        -7.7496936079       -1.5264939182       -5.5660486034
 C        -3.9108679557        3.2980509056       -1.1716198852
 C        -4.8041846145        1.3681935446        0.5931754136
 H        -4.9203335125        5.5280248287        0.3132215257
 H        -6.6746927364        5.6687722682        0.2422534255
 H        -5.8017723943        5.2544144230       -1.0955223259
 H        -4.4067515098        1.7539189467       -3.4048201636
 H        -5.8177016695        2.8406356641       -3.5416398566
 H        -5.9881390232       -0.1555859175       -3.1858866058
 H        -5.6034007547        0.5834592323       -4.7668080751
 H       -10.1329446276       -1.4376416443       -2.0629195933
 H        -9.0518956446       -0.0802128679       -1.6389686605
 H        -7.8589656979       -2.5632959996       -0.8253884647
 H        -9.6064164017       -2.6023374129       -0.4287324753
 H       -11.7449406650       -0.7136715000        3.6279440044
 H       -11.4707649980       -1.1988616441        1.8407020524
 H       -10.6747017450        1.4400746501        2.8869744859
 H       -12.6344873225        1.1496948738        2.6776779491
 H       -11.1545739624        5.2188581822        2.2104689753
 H       -12.7916624095        4.9224090652        1.3108613960
 H       -12.2403887632        6.4637356190       -0.0531736939
 H       -11.1347629487        5.3847690588       -0.9045839905
 H       -12.4760585060        8.6016850746       -0.7329632075
 H       -11.9763965004       10.2029309550       -0.8342964519
 H       -12.9200171874       10.6820100895        1.4611070907
 H       -13.7922784580        9.2201363565        1.5373402506
 H       -18.0344065676        9.5087092511        2.9622440198
 H       -17.3086947269        7.8961485224        2.9680748468
 H       -18.5435350899        8.3514254663        1.7040286623
 H       -16.4937860292       11.4699918387        3.0297901904
 H       -14.7497645837       11.9562749610        2.7182358239
 H       -15.0637959640       10.3473215703        3.3320105902
 H       -17.5456592401       12.1017747443        1.2686237502
 H       -17.5046368880       11.1127155846       -0.2095831953
 H       -16.3098524948       12.3696227610       -0.0053807157
 H        -8.2105390447        9.5904199479        0.0722865166
 H        -7.7950499341        7.9943070727       -0.3624454914
 H        -8.2470530662        8.4883013540        1.4310948512
 H       -10.8561946661        7.5411189866       -1.9041358407
 H        -9.0942199599        8.0469258328       -2.1629784725
 H       -10.4032887286        9.2788662444       -1.9679980433
 H       -10.3862770935        3.0407817211       -1.3555820614
 H       -12.0664678277        3.5106086942       -1.6738544293
 H       -11.4373608885        1.9124323002       -1.8284617424
 H       -13.9070595573        1.7892108314       -0.3627864770
 H       -13.8339713436        3.5672674756       -0.1766005286
 H       -13.8850563571        2.5174454699        1.2363436088
 H        -9.9086829331       -2.9678579385        3.3445784712
 H        -8.7616291511       -3.5752011898        2.2135495779
 H       -10.1566502778       -3.0573176625        1.4903950363
 H        -6.9062652220       -0.6712995625        3.3767693225
 H        -6.7420943211       -2.2816332089        2.8238721648
 H        -7.8195137080       -1.9350390683        4.0993103979
 H       -10.1775286826        0.4610285362       -4.0406988290
 H       -10.5827929127       -1.0923662522       -4.8562187256
 H        -9.9106879482        0.1816441278       -5.6128333180
 H        -6.6699631571       -1.3959250649       -5.5532552862
 H        -8.0256124881       -1.3124152026       -6.6117994171
 H        -8.1148000528       -2.5657627200       -5.4364539755
 H        -3.4583325532        3.6840937512       -0.2587745941
 H        -4.1395071755        3.9885444365       -2.0563798842
 H        -3.1409379712        2.4260910142       -1.3486956611
 H        -3.7986822959        1.3125364498        0.4946881445
 H        -5.2431685165        0.4219859327        0.3044385226
 H        -5.1344764918        1.6290451036        1.5555998747
 Na       -8.1257642904        1.6223815331        1.6866290716
