117

 C        -5.9213618740        5.0560263611       -0.1474838303
 C        -6.0270670439        3.6372659881        0.2520815747
 O        -6.7809125003        3.3081852153        1.1597441048
 C        -5.0559680771        2.5120430166       -0.4035443715
 C        -6.0158572310        1.9451515682       -1.6556305434
 O        -7.1081437291        1.5976052364       -1.1789616158
 C        -5.5338859721        1.7717392286       -3.0752345525
 C        -6.1006727792        0.5530200015       -3.8018264458
 C        -7.5785411908        0.6213060142       -4.0006822495
 O        -8.2469122379        1.6138406170       -3.7583048700
 C        -8.3602911546       -0.7000136786       -4.3712159719
 C        -8.3236017347       -1.5226151718       -3.0247103531
 O        -7.5906095337       -2.4880850564       -2.9483468177
 C        -9.1611525869       -1.2201894981       -1.7288446514
 C        -8.9138401251       -2.0829228750       -0.3547911417
 C        -8.4112198244       -1.1478267888        0.7592206599
 O        -7.5745549038       -0.3071615794        0.5734846853
 C        -8.7390233193       -1.6324485892        2.3084005525
 C        -9.6679989964       -0.4783280026        2.8474397440
 O        -9.1668496321        0.5394873995        3.4475139549
 C       -11.1439549360       -0.5119792821        2.7327063268
 C       -11.6540631602        0.8786877750        2.3687677781
 C       -11.6723837138        1.0443781411        0.8510172480
 O       -11.3859744956        0.1503970054        0.0515090173
 C       -11.9166607281        2.4817340921        0.3154921044
 C       -11.0491550545        3.5447162724        1.0952774132
 O        -9.9198064002        3.2055191920        1.4139824399
 C       -11.6220444169        4.9341010060        1.2315918619
 C       -11.4765666695        5.9264938122        0.1228391961
 C       -10.0333932338        6.5058238158        0.1351052126
 O        -9.0052510724        5.8074856662        0.4852714996
 C        -9.8077481591        8.1287080877       -0.2247314165
 C       -10.8074860853        9.2375153519        0.5100413461
 O       -10.5984074544        9.4657333543        1.6657615691
 C       -12.1862142217        9.6080618698       -0.0025276521
 C       -13.2571546506        9.7849777570        1.0152580934
 C       -14.6310506072       10.5093422736        0.2640901933
 O       -14.5516649855       11.0788781695       -0.7749550483
 C       -16.0105057079       10.5959631566        1.1590459744
 C       -16.4939316860        9.1620130070        1.4006400455
 O       -15.7091650510        8.3117084520        1.0234863557
 C       -17.7241871955        8.8529931876        2.3658750090
 C       -15.6041134713       11.1512604595        2.5740550541
 C       -16.8203506159       11.7480647795        0.3623403133
 C        -8.3915367291        8.4659706189        0.2047662301
 C       -10.1696354568        8.1587848468       -1.7225384934
 C       -11.3545898958        2.6738656698       -1.1594216692
 C       -13.3991855693        2.7440322902        0.3323292353
 C        -9.4691489988       -2.9419771641        2.3967432911
 C        -7.4240048014       -1.5073787047        3.0053113271
 C        -9.7683172487       -0.2339769326       -4.7312438476
 C        -7.7863650361       -1.6441034056       -5.3514747252
 C        -3.7876966701        3.2903738953       -1.0805981238
 C        -4.7154668470        1.5205556587        0.5895401326
 H        -5.1823630999        5.7145853324        0.3786146322
 H        -6.8245129081        5.5583098296       -0.1587710853
 H        -5.6154634840        5.1323404297       -1.1346130471
 H        -4.5418053040        1.5542911204       -3.1472760290
 H        -5.6729371822        2.6862758877       -3.6698127888
 H        -5.9194428282       -0.2740692553       -3.2027455258
 H        -5.6954221408        0.6718315166       -4.8141433834
 H       -10.2521080259       -1.3074396235       -1.8887360211
 H        -8.8603221443       -0.1662403089       -1.4965270409
 H        -8.0420612216       -2.7375688159       -0.5972656400
 H        -9.8323460642       -2.5952460434       -0.1961746849
 H       -11.5757758383       -0.8202910980        3.7015284691
 H       -11.3632798386       -1.2637257509        1.9866986503
 H       -10.9283378135        1.5519130723        2.8731110600
 H       -12.7042821792        0.8568568073        2.5723355145
 H       -11.1883382047        5.4382742886        2.0979688303
 H       -12.7898906699        4.9874728011        1.2434078669
 H       -12.2285056437        6.6109773784        0.4275959751
 H       -11.7910509100        5.6373762928       -0.8538699815
 H       -12.4933209088        8.8907474326       -0.7025959242
 H       -12.1625067756       10.4815100242       -0.6840998056
 H       -12.9480445743       10.4194992224        1.8735287252
 H       -13.6690601772        8.8983600903        1.4009591558
 H       -17.6733951540        9.5944342523        3.2198131592
 H       -17.7036378294        7.8085802621        2.6683514993
 H       -18.6218981816        9.1235378883        1.7132080136
 H       -16.4885432015       11.5296857832        3.1236866586
 H       -14.8704881195       11.9968089902        2.3718532896
 H       -14.9996033662       10.5050182229        3.1517719524
 H       -17.3123793454       12.3068266874        1.2018200055
 H       -17.4948167417       11.3164625287       -0.3057514313
 H       -16.2113133449       12.3190175858       -0.1617375707
 H        -8.1552627840        9.5783220375        0.1711877110
 H        -7.6637410029        7.9488529843       -0.4448060775
 H        -8.3615180360        8.3250476381        1.2874221836
 H       -11.2236765298        7.7644957059       -1.7718764951
 H        -9.3889468104        7.6488318446       -2.3593361015
 H       -10.2175570424        9.1789017840       -2.1215547701
 H       -10.5209617190        3.3439510600       -1.3168546962
 H       -12.1523447733        2.9811659652       -1.8130059468
 H       -10.8883946130        1.8124117532       -1.5413395291
 H       -13.9079233043        2.0772457683       -0.3403753536
 H       -13.6809652039        3.8001483216        0.1616210019
 H       -13.7106043831        2.4583418625        1.3176233867
 H        -9.6501171677       -3.0457646206        3.4379224582
 H        -8.9128004963       -3.8444962675        2.0569304753
 H       -10.2947478486       -2.9145944257        1.8411210911
 H        -6.9573002361       -0.4994685228        3.1030341564
 H        -6.6008229561       -2.1819771433        2.5826379812
 H        -7.5446773985       -1.8052754293        4.0440517873
 H       -10.0826362419        0.4949688268       -3.9490167270
 H       -10.5144768722       -1.0574791140       -4.9604848093
 H        -9.8712790488        0.3764702562       -5.6060705994
 H        -7.0288653258       -1.0321314220       -5.9730186096
 H        -8.5024658559       -2.0443374361       -6.0820734711
 H        -7.4324694978       -2.6066063364       -4.9409472450
 H        -3.0982017610        3.6892016234       -0.3189115087
 H        -4.2471333285        3.9992679212       -1.9092632655
 H        -3.2607864284        2.5024200138       -1.5614108208
 H        -3.6458096200        1.3832326878        0.6129245816
 H        -5.2861052528        0.6076392045        0.4977724218
 H        -5.0598434608        1.9991484487        1.5096446177
 Na       -7.9670014307        1.6442573017        1.6533736951
