117

 C        -5.9068080091        5.3027014767       -0.3795830526
 C        -5.5843915326        4.0238136716        0.4568439576
 O        -5.9464240906        3.7500754954        1.5833520998
 C        -4.7213209290        2.7987837279       -0.3613825661
 C        -6.0385050906        1.9734556966       -1.1596133772
 O        -7.1493080365        2.2840802613       -0.7659080194
 C        -5.8051324014        1.0958281977       -2.3702341853
 C        -6.6451557947       -0.1903698500       -2.4378461992
 C        -7.6958790322       -0.0383162234       -3.5924383867
 O        -7.9679108123        1.0937759328       -4.0662629796
 C        -8.5548394922       -1.2158096422       -4.0522296717
 C        -8.9324275482       -2.0347168643       -2.7104726079
 O        -8.5819102079       -3.1338417744       -2.4655490418
 C        -9.8242588058       -1.4567302231       -1.5350662377
 C        -9.4021860126       -2.2297022563       -0.2515875217
 C        -8.5596433548       -1.4891027143        0.7374584717
 O        -7.7745398967       -0.4995946566        0.4185435955
 C        -8.9446217268       -1.5755800378        2.2777837828
 C        -9.7203373728       -0.2907721813        2.7112689867
 O        -9.2071577178        0.8010942951        2.7575249362
 C       -11.3141051990       -0.2580753258        3.0142549819
 C       -11.8559538300        0.9962684050        2.5829468354
 C       -11.6735218961        1.2511664739        1.1649278088
 O       -11.4037274432        0.3069371000        0.4460336757
 C       -11.8707034780        2.6443345068        0.5777573655
 C       -10.9312520478        3.6448072922        1.4454348703
 O        -9.6738892201        3.4041753076        1.5860827857
 C       -11.3904047502        5.0238196142        1.8033112576
 C       -11.4174150743        5.8543103552        0.4609961732
 C       -10.0138781145        6.3721416549       -0.1527026879
 O        -9.1958855368        5.5690444923       -0.4107291622
 C        -9.9258706222        7.7815092898       -0.7443348176
 C       -10.7469120316        8.7972234449        0.2982473529
 O       -10.2799150574        9.0837724595        1.3805668999
 C       -12.0611087278        9.4598820731       -0.2457140527
 C       -13.0630156492       10.1321628190        0.7509364029
 C       -14.1788698393       10.9242053963       -0.1141803989
 O       -14.0427067417       11.4565023097       -1.1776261373
 C       -15.5754960173       11.0907420703        0.7337503652
 C       -16.0131241386        9.6397321294        1.1793480521
 O       -15.3289597443        8.6561023339        1.2065199523
 C       -17.5684988193        9.5524730928        1.7015696620
 C       -15.6029152655       11.8115874480        2.1327548261
 C       -16.7038470443       11.8292918597       -0.1808775417
 C        -8.5360897472        8.2302165819       -0.8673086225
 C       -10.6403823207        7.6010130256       -2.1376319595
 C       -11.4682934656        2.5794126044       -0.8953861350
 C       -13.3896022942        2.8615706776        0.5447133796
 C        -9.5981122257       -2.9552598957        2.6668529304
 C        -7.7376572760       -1.6024716247        3.2363009463
 C        -9.8493050348       -0.7096776236       -4.8844798684
 C        -7.6087073873       -2.0687662392       -4.8826806554
 C        -3.7062045481        3.3014582003       -1.4110454236
 C        -4.2226524054        1.8085879053        0.6196225662
 H        -4.9283425065        5.8721575557       -0.3788987902
 H        -6.6843094377        5.9403579358        0.0364816522
 H        -6.0846841833        5.3213878623       -1.3979981052
 H        -4.7872022963        0.7920618700       -2.4808071120
 H        -5.9655959448        1.6636434811       -3.3479679621
 H        -7.1800805404       -0.4001061771       -1.3986272816
 H        -5.9987496686       -1.0298151306       -2.9160042858
 H       -10.8579347195       -1.5160332618       -1.8746770658
 H        -9.7627551528       -0.3577090877       -1.2396665729
 H        -8.7049979930       -3.0789618454       -0.5408470893
 H       -10.3419901755       -2.6354732912        0.0056520159
 H       -11.6370843568       -0.3959981523        4.0251559514
 H       -11.6646581235       -1.1917968108        2.5450281272
 H       -11.3910661093        1.7840927364        3.1210628260
 H       -12.9028728026        0.9566124931        2.7739893436
 H       -10.8782805483        5.5270289281        2.5625053267
 H       -12.3854313524        4.8822230595        2.2582101810
 H       -11.9909828273        6.7258135912        0.5759751350
 H       -11.9151521336        5.2662966843       -0.2491801028
 H       -12.5724607733        8.6340999645       -0.7707369884
 H       -11.7521503320       10.2039939039       -0.9288864608
 H       -12.3715658797       10.8925504387        1.1625389704
 H       -13.4709341715        9.3785823542        1.4755032470
 H       -17.9720319389        9.7955574350        0.7205124254
 H       -17.8096285055       10.2602408170        2.4706812411
 H       -17.8574164997        8.4429604123        2.0124311881
 H       -16.5517635820       12.0803385607        2.4375306688
 H       -15.0637805633       12.7226162117        2.2309479673
 H       -15.2867283279       11.0827168998        2.9372459095
 H       -17.6731099189       11.8932554206        0.3570548819
 H       -16.8983157304       11.1745378030       -1.0871104311
 H       -16.4285404793       12.8674226320       -0.3407637509
 H        -8.5565468106        9.2198343328       -1.2732021177
 H        -7.9963276428        7.4314705365       -1.3997139825
 H        -7.9785024011        8.3038337050        0.1405488417
 H       -11.2847956956        6.7865562994       -2.2547940307
 H        -9.8650290575        7.3743719903       -2.9366824853
 H       -11.2451429594        8.4642765781       -2.4249492240
 H       -11.8182844787        3.5181586617       -1.3139211404
 H       -11.9450464608        1.8049010849       -1.5101727006
 H       -10.4099616168        2.5239883712       -1.1276624094
 H       -13.6913699776        2.2707477342       -0.3445828491
 H       -13.6592156917        3.8555559415        0.2545459184
 H       -13.9301146241        2.4984736601        1.4245306328
 H        -9.9929683732       -2.9106511817        3.7873025448
 H        -8.9410547694       -3.8089549205        2.6314024408
 H       -10.5595748130       -3.1912834140        2.1420187904
 H        -7.1670014311       -0.6219989151        3.3145157615
 H        -6.9670223057       -2.3493508924        3.0017891174
 H        -8.1445912042       -1.7344475744        4.3030147011
 H       -10.2222154949        0.3189922588       -4.7528217770
 H       -10.8593018179       -1.3106683585       -4.6436406711
 H        -9.5990860533       -0.7670885201       -5.9530286855
 H        -6.9127659443       -2.7720286356       -4.3136898454
 H        -7.0229906299       -1.2790936642       -5.4289870518
 H        -8.1768051916       -2.6786920337       -5.6607502237
 H        -3.1689464001        3.9476045774       -0.8635905150
 H        -4.0489888800        3.8835896669       -2.2374046452
 H        -3.1751109415        2.4716444895       -1.7092026242
 H        -4.3124526650        0.8125080660        0.2558347445
 H        -4.8230098082        2.1412516860        1.5679686328
 H        -3.1228849868        1.9739058200        0.7611768904
 Na       -7.9381393924        2.0661908231        1.4224162203
