117

 C        -5.6592694313        5.2346827491       -0.2551734365
 C        -5.5547360523        3.9851492647        0.4040537879
 O        -6.0680770768        3.7491317016        1.4907551260
 C        -4.8778706508        2.7905330557       -0.3636455399
 C        -6.0556118503        2.1020966189       -1.1633467376
 O        -7.2135013347        2.3261344989       -0.8416820248
 C        -5.6971735403        0.9740620470       -2.1596882015
 C        -6.6672684504       -0.2504808378       -2.3544109866
 C        -7.7512048586       -0.0593166046       -3.4156294481
 O        -7.8726678750        0.9752185441       -3.9581376561
 C        -8.5545031846       -1.2882873875       -3.9902065179
 C        -9.0253439980       -2.1341129221       -2.7510618085
 O        -8.5268907588       -3.2391624293       -2.7684624067
 C        -9.8130219008       -1.5262481677       -1.5527112102
 C        -9.4594828391       -2.1948239758       -0.1987407553
 C        -8.7524460767       -1.4170881950        0.8248519107
 O        -7.8064148584       -0.5940561493        0.5078072180
 C        -9.0384761546       -1.5008700474        2.4093628541
 C        -9.6996239622       -0.1906554998        2.6899595110
 O        -9.1464520507        0.8405622427        2.8545763420
 C       -11.2006967069       -0.2021436893        3.2569858267
 C       -12.0106951128        1.0339622695        2.8066054369
 C       -11.6965219639        1.2800333289        1.1256051477
 O       -11.3113419454        0.3676245388        0.4109853772
 C       -11.8181987559        2.7681815704        0.4890625136
 C       -10.8505582159        3.7341575870        1.3474043799
 O        -9.7196438957        3.3998356596        1.6773861680
 C       -11.4495896603        5.0875471578        1.7095280509
 C       -11.5284448181        5.8878677317        0.4745435796
 C       -10.1206396832        6.2321792763       -0.1413081300
 O        -9.2017423331        5.4374088943       -0.5129226273
 C       -10.0373857604        7.7537763634       -0.7056863379
 C       -10.8198003197        8.7434411285        0.1949423029
 O       -10.2004729133        8.8963579123        1.2525603915
 C       -12.0861530911        9.3865864645       -0.4194723124
 C       -12.9478101563       10.2398927952        0.5772199595
 C       -14.1621391318       11.0504923315        0.0046847480
 O       -14.1794193363       11.4250747569       -1.1210483506
 C       -15.5472618949       11.0974636050        0.7597869720
 C       -16.0335455373        9.7277209388        0.9941976309
 O       -15.2314973648        8.8339476814        1.1934402123
 C       -17.4305987880        9.6408719573        1.5222244620
 C       -15.4544438214       11.9057693580        2.0186265774
 C       -16.5035240490       11.7726317215       -0.2699215079
 C        -8.6531994547        8.2953488628       -0.9231348575
 C       -10.7495906183        7.4239850286       -2.0235643600
 C       -11.4527798769        2.6974827531       -0.9852802092
 C       -13.3387783163        3.1563039353        0.7114293475
 C        -9.8358071363       -2.7977298952        2.6975870338
 C        -7.6273293309       -1.4894889135        3.1614041799
 C        -9.7290241331       -0.8890162301       -4.8611096275
 C        -7.6963593824       -2.2404578478       -4.8221797577
 C        -3.8970409779        3.2790425795       -1.5512677342
 C        -4.1965144133        1.8217686804        0.6047100951
 H        -4.7953766081        5.8594473775       -0.6376705956
 H        -6.3115147016        5.7697759780        0.4495861355
 H        -6.2591819128        5.2297355255       -1.1827398021
 H        -4.7066134795        0.5808784430       -2.2286856799
 H        -5.7687878914        1.5942993028       -3.2107292432
 H        -7.3190469590       -0.1927391783       -1.4166033902
 H        -6.0937856620       -1.1980826972       -2.5049696868
 H       -10.8510718675       -1.4996872287       -1.7644950074
 H        -9.6346054112       -0.4355009358       -1.5298946614
 H        -8.9164757721       -3.2139994692       -0.4102245157
 H       -10.4701324109       -2.4294374159        0.0111763301
 H       -11.1543001490       -0.4232279088        4.3643208705
 H       -11.5403483536       -1.1812232465        2.9611442859
 H       -11.6029331298        1.9640161461        3.3591917309
 H       -13.1056591165        0.9703269552        2.9241843343
 H       -10.9071599402        5.5316302825        2.4564976948
 H       -12.4466836199        5.0149352514        2.1661556468
 H       -12.1000379044        6.8533319300        0.5409927749
 H       -12.0468048416        5.2117425599       -0.2286135699
 H       -12.7170623976        8.4954902280       -0.5653743443
 H       -11.7194798146        9.8268676781       -1.3803630254
 H       -12.2365280101       11.1033875747        0.9438668120
 H       -13.1367496626        9.4919515390        1.2958863352
 H       -17.9783735920       10.4133327994        1.0232095431
 H       -17.2731824141        9.7574396464        2.5837320624
 H       -17.7836929832        8.6560519329        1.3735194752
 H       -16.4209787457       12.2313799438        2.3358081567
 H       -14.9022666840       12.8253588170        2.0951797325
 H       -15.1813400982       11.2598235296        2.7694214410
 H       -17.5930985484       12.1338465421        0.0911543156
 H       -16.6288706319       11.0786964492       -1.1346975272
 H       -15.9921696244       12.6794488759       -0.4639078063
 H        -8.8145290732        9.3047130229       -1.4076979484
 H        -8.1043133584        7.5798759907       -1.5144174573
 H        -8.0593607503        8.4051899490       -0.0187514974
 H       -11.5286150071        6.6743360892       -2.0161639547
 H       -10.0643910280        6.9128364187       -2.6695097330
 H       -11.0996373261        8.2512116857       -2.5408204929
 H       -11.4937003334        3.7234054789       -1.4407824862
 H       -12.1533370675        2.1069138832       -1.6013163681
 H       -10.5055311115        2.2443293943       -1.2107938695
 H       -13.9814785129        2.4241457499        0.2101026850
 H       -13.5928547567        4.1132033591        0.1976015031
 H       -13.5269240042        3.1890173930        1.7718186935
 H       -10.0271339517       -2.9852447381        3.7628876944
 H        -9.2622502053       -3.8007775712        2.3210054975
 H       -10.8316991412       -2.7716267421        2.3142097791
 H        -7.1137016905       -0.5069040302        3.0471962861
 H        -6.8546942107       -2.2940990479        2.9921003999
 H        -7.8815361590       -1.4798734402        4.2055207655
 H       -10.0306384575        0.1428005430       -4.6231771477
 H       -10.6702199846       -1.3749931086       -4.7067523778
 H        -9.4145744994       -0.8852334613       -5.8844280491
 H        -6.6228936307       -2.3617572588       -4.4378235614
 H        -7.6362949658       -1.8645250669       -5.8109227490
 H        -8.2283817257       -3.2078017251       -4.8149285320
 H        -3.1047195849        3.7921562934       -0.9454058974
 H        -4.2349814897        4.0869536878       -2.1377379378
 H        -3.5466010882        2.4743856895       -2.0940394255
 H        -3.8552247828        0.9458221488       -0.0102571350
 H        -4.8291404006        1.6890902186        1.5302550418
 H        -3.2142878858        2.3387230023        0.8250117341
 Na       -7.8038335578        1.9225422871        1.5514937681
