117

 C        -5.4610951225        5.3801910798       -0.1714487466
 C        -5.6422176915        3.9879818025        0.3552222610
 O        -6.1997774623        3.5947279813        1.4064532391
 C        -4.9606609031        2.7245331806       -0.4214862640
 C        -6.1620284272        1.9418034975       -1.1284195884
 O        -7.3314938358        2.2140113204       -0.9001220695
 C        -5.7109709504        0.8855546360       -2.0560075827
 C        -6.6689215780       -0.2684661755       -2.2005774803
 C        -7.6889224381       -0.0096298525       -3.4356957652
 O        -7.8235435467        1.0643280876       -3.9233761777
 C        -8.5144173709       -1.3780491693       -4.0206142711
 C        -8.8849498943       -2.3201693445       -2.6599779069
 O        -8.6775470862       -3.5602709190       -2.6258680269
 C        -9.6806493691       -1.5856392882       -1.6028612496
 C        -9.5947275855       -2.2222331034       -0.1026459624
 C        -8.8162550904       -1.2610786392        0.8823125494
 O        -7.8948870808       -0.5709310357        0.5572967382
 C        -9.0953305848       -1.4571471627        2.4660667218
 C        -9.7708723513       -0.1694610683        3.0265794567
 O        -9.1242212152        0.8713832574        2.9727037787
 C       -11.2788465647       -0.0792857637        3.3800986304
 C       -11.9621955482        1.1091933100        2.6049890923
 C       -11.6357679467        1.3386721150        1.1764547029
 O       -11.2531093816        0.3925922760        0.5563447233
 C       -11.8530039657        2.7586469940        0.6266425976
 C       -10.8639723975        3.6867895846        1.3654461470
 O        -9.8072541984        3.3508877914        1.6846017431
 C       -11.3728412918        5.0949026825        1.6147090704
 C       -11.4879409304        6.0180548782        0.4562948211
 C       -10.2030040581        6.1761560612       -0.2234884386
 O        -9.3628703433        5.2977449027       -0.3686327335
 C       -10.1083093785        7.6722132424       -0.9345107022
 C       -10.8747217492        8.6697148916        0.1014084055
 O       -10.4790050959        8.9637353594        1.1849774614
 C       -12.1671971027        9.3769567856       -0.3558937171
 C       -12.7342473536       10.4955466274        0.6171667046
 C       -14.0194840076       10.9979861196       -0.0964673707
 O       -13.9667015006       11.4016836801       -1.2860189098
 C       -15.4076505513       11.1764952413        0.6897554533
 C       -16.0101523928        9.7254455670        1.1893436637
 O       -15.2370764612        8.7763167887        1.1017570834
 C       -17.5547047526        9.5326148748        1.4784287851
 C       -15.2254715689       12.1051271441        1.9803203436
 C       -16.3631429004       11.9102089547       -0.4061194635
 C        -8.6871283707        8.2589948360       -1.0661809725
 C       -10.9047419642        7.4001137135       -2.2794676671
 C       -11.3927652449        2.7916744041       -0.8987820081
 C       -13.3019407276        3.3283143743        0.8585398325
 C        -9.9402248467       -2.6603818880        2.7472367988
 C        -7.6512659681       -1.4841262147        3.0041491095
 C        -9.7572535609       -0.8892897236       -4.7728618228
 C        -7.5802573312       -2.3283145895       -4.9034063117
 C        -4.0422012020        3.2984505546       -1.5669753086
 C        -4.1246873690        1.7909194650        0.5252712698
 H        -4.6124156112        5.6806540937       -0.7290645734
 H        -5.7811006090        6.1335916595        0.6012375980
 H        -6.2853320110        5.4886764718       -0.9863203248
 H        -4.7125596873        0.3474284517       -1.8662250482
 H        -5.4532628244        1.3596668911       -3.0039334361
 H        -7.2474106727       -0.2487482429       -1.3371262614
 H        -6.0913377960       -1.1822273942       -2.3003038353
 H       -10.6894993256       -1.5207441771       -2.0461663182
 H        -9.4870509913       -0.5605061161       -1.6510308388
 H        -9.1261805065       -3.1930223392       -0.3401111072
 H       -10.6941441920       -2.4490970127       -0.0055696556
 H       -11.3483298368        0.0222549144        4.4922319225
 H       -11.5834149501       -1.1052542838        3.3056016754
 H       -11.8107952530        2.0912056911        3.1743968367
 H       -13.1324641671        1.0354556530        2.4497558060
 H       -10.4500637417        5.4670327548        2.2450441772
 H       -12.1893483581        5.3529429478        2.2382003023
 H       -11.9827608380        7.0028451510        0.8055987232
 H       -12.1630456080        5.5303871877       -0.3398496272
 H       -13.0329790036        8.7675243912       -0.6741177122
 H       -11.6511618099        9.9514924052       -1.2048068272
 H       -12.1297071136       11.3980228239        0.5589456106
 H       -12.7776414835        9.9559308256        1.5939779911
 H       -18.1231320976       10.4156852311        1.3261152952
 H       -17.6007001110        9.0123114995        2.4228599072
 H       -17.7735124203        8.8171460509        0.7847741631
 H       -16.2281994207       12.3331232689        2.4416587036
 H       -14.8036183397       13.0908809583        1.9526422833
 H       -14.7346901606       11.5582177409        2.7388226683
 H       -17.2460977759       12.2350659802        0.0651028009
 H       -16.6590438040       11.1877126890       -1.1508054249
 H       -15.8774516249       12.8780684131       -0.7615524448
 H        -8.8677921083        9.2429978989       -1.5964060616
 H        -7.9005962316        7.6516451591       -1.5001097856
 H        -8.3322060333        8.4114339086       -0.0841308106
 H       -11.9901500188        7.1883379939       -2.2774389943
 H       -10.6315320927        6.5119063321       -2.7218614306
 H       -10.6308000132        8.1739315382       -2.9936325682
 H       -11.1589163033        3.7899851270       -1.3023697947
 H       -12.1216349227        2.3450713599       -1.5597931354
 H       -10.5587857831        2.0778807393       -1.0635419258
 H       -14.1284968313        2.6764034949        0.6755158365
 H       -13.4247118799        4.1487430831        0.1332214845
 H       -13.3102334111        3.7022880112        1.8831528531
 H       -10.0001803841       -2.7900202055        3.7702779042
 H        -9.6272987372       -3.5752297602        2.3573639104
 H       -10.9871860675       -2.4582120974        2.5146869019
 H        -7.1252441756       -0.6313194393        2.6352982122
 H        -7.0469442433       -2.3731872565        2.8524987587
 H        -7.6898256711       -1.3592085812        4.0601943818
 H       -10.1262933974        0.0047175398       -4.3176529713
 H       -10.5810652565       -1.4551942807       -4.7788128132
 H        -9.4407692694       -0.6573447926       -5.7853125129
 H        -6.5475506352       -2.0752404663       -4.7309375725
 H        -7.6833391789       -2.1839383676       -5.9666762920
 H        -7.8324615016       -3.3100581133       -4.6132738977
 H        -3.1479815457        3.8266368730       -1.0905663257
 H        -4.5160009418        4.1204348278       -2.1057076364
 H        -3.7250341305        2.4272456831       -2.3089306942
 H        -3.4384559302        1.1854457024       -0.1555044336
 H        -4.7636680381        1.2443499199        1.1568370212
 H        -3.4406751368        2.4366582215        1.0771991781
 Na       -7.5708254024        1.8537356482        1.5098630344
