117

 C        -5.0964199440        5.0246802971        0.5263754219
 C        -5.8165893915        3.7648918799        0.3422129319
 O        -6.7274566613        3.4383983236        1.0162821522
 C        -5.0448692486        2.7696724317       -0.6090447622
 C        -5.9749618813        1.6555996068       -1.1340286282
 O        -7.1759885342        1.5574091165       -0.8754771969
 C        -5.4013191369        0.6793432369       -2.2043170314
 C        -6.3063807678       -0.6385160325       -2.4911882863
 C        -7.5254499337       -0.5601584379       -3.4529159694
 O        -7.8800712693        0.5370447437       -3.8521268814
 C        -8.3703765356       -1.7444521207       -3.6640734517
 C        -8.8913895724       -2.3350259420       -2.2963612364
 O        -8.4861582880       -3.3723534412       -1.9512307319
 C        -9.9932270148       -1.6852089934       -1.3728111828
 C        -9.7969723695       -2.2472167153        0.0739934560
 C        -9.2984743841       -1.2260289723        0.9943737326
 O        -8.5843153133       -0.3950082484        0.5971782261
 C        -9.3911932021       -1.4478588644        2.6730692072
 C        -9.9129188325       -0.1716490086        3.3877972304
 O        -9.0517640243        0.8092247422        3.5644742041
 C       -11.4449275930        0.1024726727        3.8001227732
 C       -11.7772075948        1.4753677138        3.1759258066
 C       -11.5823622996        1.3918942030        1.6691493587
 O       -11.3530716295        0.3850092751        1.0021559323
 C       -11.7809873580        2.7473532765        0.7538100009
 C       -10.6472441395        3.8660735716        1.3192267135
 O        -9.4555745047        3.5134597756        1.5645221915
 C       -11.1874014564        5.1712118950        1.9880392622
 C       -11.3594302773        6.1701963210        0.8152179244
 C       -10.3389984297        6.1888466252       -0.3302648776
 O        -9.8045394356        5.1948567479       -0.6802139506
 C       -10.2597412163        7.6227421437       -1.1654774709
 C       -10.8873661722        8.9213191372       -0.5364622628
 O       -10.3371999882        9.2871805856        0.5063091015
 C       -12.0823882606        9.7100977287       -1.1128538879
 C       -12.4583401338       10.8814519811       -0.1363770950
 C       -13.8603212324       11.4291207033       -0.5368860527
 O       -13.8762420315       11.7402686057       -1.6808903763
 C       -15.2408059426       11.6153980141        0.4065200675
 C       -15.6944070843       10.1029960978        0.7988643322
 O       -14.8062476662        9.3005800927        0.7569144888
 C       -17.1446497171        9.7633416102        1.2851750335
 C       -14.8533051578       12.1892425188        1.7245559280
 C       -16.2116719629       12.6528362524       -0.2111458667
 C        -8.8456023847        7.9716439946       -1.7388601646
 C       -11.1940175127        7.0275820417       -2.4523490387
 C       -11.4248804957        2.3999494512       -0.7141587510
 C       -13.2002837552        3.3042770217        1.0124855489
 C       -10.2128164997       -2.7633412893        3.0211560942
 C        -7.8810858790       -1.8016335950        3.0576720440
 C        -9.5356575272       -1.1371715490       -4.4751492497
 C        -7.7134119322       -2.9296659104       -4.4129520150
 C        -4.4294702677        3.5504988302       -1.8153625926
 C        -3.7935506065        2.0435593100        0.1491691844
 H        -4.0931946427        4.9467504698        1.1378661140
 H        -5.6584103805        5.6505399162        1.2207094392
 H        -4.8310082034        5.6013838313       -0.3329914223
 H        -4.3432172389        0.4474809321       -2.0705083833
 H        -5.4591007654        1.1388328021       -3.1727526461
 H        -6.6719933365       -1.0314149838       -1.5678447331
 H        -5.7967021186       -1.4768004130       -2.9212567874
 H       -10.9184176464       -2.0949597110       -1.8102842635
 H       -10.2684943009       -0.6528126123       -1.3057284627
 H        -9.0289610554       -3.0703168886        0.2278701126
 H       -10.7505692429       -2.6631318712        0.3736582667
 H       -11.4063906305        0.2889334230        4.8750431935
 H       -12.0683618381       -0.8401969381        3.7653516635
 H       -11.2094870990        2.3915942076        3.5578125796
 H       -12.8567428721        1.8323879828        3.4377588195
 H       -10.5849428650        5.6459449472        2.7722850955
 H       -12.2395212631        4.9376351598        2.4349624976
 H       -11.2983737219        7.2020384620        1.2159240003
 H       -12.3855315836        5.9804642022        0.2750071497
 H       -12.8607247027        8.9412446159       -1.4453767069
 H       -11.7616482188       10.3114280678       -1.9904376227
 H       -11.8122917553       11.7428760583       -0.2590708292
 H       -12.4167753532       10.4670186937        0.8895133713
 H       -17.3278381655       10.2051603764        2.2091531703
 H       -17.1512768857        8.7233936889        1.3050534304
 H       -17.8075654456       10.1348779207        0.4529279660
 H       -15.5842498145       12.5423102502        2.3626569346
 H       -14.2376824055       13.0353818824        1.4764905137
 H       -14.0410928418       11.6451791421        2.2485911826
 H       -16.9618361695       12.9011747090        0.5902222280
 H       -16.8195602741       12.2657078804       -1.0377285552
 H       -15.7618238706       13.5255426791       -0.4898550726
 H        -8.7869441147        8.8153497095       -2.3383169980
 H        -8.5044967294        7.2350047090       -2.4472119231
 H        -8.1267515176        7.9721505794       -0.8731647924
 H       -11.7945685773        6.2415433014       -2.1160645499
 H       -10.6089003586        6.7905544606       -3.3775890592
 H       -11.8113788481        7.7880423429       -2.8971007334
 H       -11.7385972239        3.1337957524       -1.4601349700
 H       -11.7224278301        1.3607304791       -1.0031532572
 H       -10.3232388235        2.3517335017       -0.7786426517
 H       -14.0339329557        2.6000096137        0.8070761541
 H       -13.3067782097        4.2079208715        0.4452409743
 H       -13.2323830584        3.5693272682        2.0881137754
 H       -10.1353531828       -3.0006326462        4.0463866851
 H        -9.7577430696       -3.6165582571        2.4571266314
 H       -11.1643787063       -2.7696668512        2.7665935525
 H        -7.1510981251       -1.0197381096        2.9064037838
 H        -7.5396739613       -2.6233525406        2.4793804560
 H        -7.8421701739       -2.2293688314        4.0863787379
 H       -10.3173755103       -0.8044354586       -3.8580366403
 H        -9.8422816279       -1.9345160059       -5.1942094445
 H        -9.2525486152       -0.3837181418       -5.0839347846
 H        -7.3333992967       -3.6257974303       -3.7015351435
 H        -6.8469481621       -2.6448218516       -4.9491382906
 H        -8.5346172172       -3.2978945231       -4.9831439744
 H        -3.5109011597        4.0470625480       -1.4206207909
 H        -5.0885744612        4.2590458490       -2.4803961330
 H        -3.7748228455        2.9257137512       -2.4722911378
 H        -3.4178768997        1.1001826948       -0.1493495007
 H        -4.1270514449        2.0283568208        1.2291632923
 H        -3.1353962984        2.9096943264        0.0659245556
 Na       -8.2041681603        1.8574599883        1.4995804663
