117

 C        -5.0580844210        5.0956780772        0.7443358962
 C        -5.5872727081        3.7026166776        0.3148372496
 O        -6.5951502003        3.3400909789        1.0399080647
 C        -4.9104813534        2.6880675237       -0.7078184225
 C        -5.9346718993        1.5256339388       -1.1903755864
 O        -7.0251880851        1.3680487834       -0.7144256513
 C        -5.5243001334        0.5836851115       -2.3590440692
 C        -6.2299705864       -0.7912840553       -2.4770709018
 C        -7.5313668598       -0.6124488552       -3.1983792744
 O        -7.6700116934        0.4975384255       -3.7069952905
 C        -8.4961180100       -1.8109032039       -3.5111084684
 C        -8.8330124561       -2.4212414184       -2.0487026651
 O        -8.0736142918       -3.2714070274       -1.5041426312
 C        -9.9524231611       -1.7745606537       -1.2971573456
 C       -10.3120427648       -2.1664954270        0.1427768588
 C        -9.4153634092       -1.4164128464        1.2112016285
 O        -8.6909400364       -0.4741828524        0.7853235049
 C        -9.4543554445       -1.6251076264        2.7371006293
 C        -9.8194456651       -0.1700137178        3.2495596118
 O        -8.9496335329        0.5223274254        3.5077380839
 C       -11.2534501520        0.0377007914        3.8121626568
 C       -11.6130325717        1.4248091537        3.4305365478
 C       -11.7041590845        1.5047071696        1.8080550991
 O       -11.7687776691        0.4125390173        1.2610516902
 C       -11.8462130709        2.8412663872        0.9439448381
 C       -10.7385875362        3.9618909911        1.4033706573
 O        -9.6496903269        3.6669595574        1.6543333068
 C       -11.1977225979        5.4001325209        1.8743645286
 C       -11.4033533886        6.5226744727        0.8866161007
 C       -10.5548396014        6.4079320272       -0.4465009224
 O        -9.8707541596        5.4080611798       -0.6177941865
 C       -10.5276163557        7.6268661637       -1.4529007821
 C       -10.9247400127        8.9490025715       -0.6818704457
 O       -10.1282851178        9.3421808368        0.1125472334
 C       -12.1525126965        9.7751303750       -1.2941164835
 C       -12.5330208161       10.8629564284       -0.3372993430
 C       -13.8016578367       11.7661237133       -0.7281827063
 O       -14.2367489209       11.9995177557       -1.8677051356
 C       -14.8210232962       11.7466883704        0.4010182333
 C       -15.4155883887       10.2590522904        0.6394114231
 O       -14.7729517809        9.2376331556        0.4952814960
 C       -16.9326489040       10.2421581046        0.9801575666
 C       -14.3453489654       12.3736307289        1.7041839490
 C       -16.0929179402       12.4858697711       -0.1940119173
 C        -9.0008738173        7.7679533132       -1.8908591174
 C       -11.3427330187        7.1553447239       -2.5799487372
 C       -11.2478914154        2.4946827112       -0.4529739614
 C       -13.3823329021        3.2239123579        0.8591330906
 C       -10.3492506198       -2.7867995858        3.1456625523
 C        -7.9280732179       -1.9432792915        3.1462756200
 C        -9.7549007924       -1.5938310054       -4.2803795161
 C        -7.6355975702       -2.8714102485       -4.3438516420
 C        -4.5662828807        3.4729325266       -1.9652285819
 C        -3.6656562021        2.0135426662        0.0193378907
 H        -4.3371364771        5.0242683913        1.4403470603
 H        -5.7746030894        5.7458114853        1.2445226174
 H        -4.5904435215        5.6694869671       -0.0827445035
 H        -4.3951810347        0.3387025883       -2.2754206091
 H        -5.7071904194        1.0431683468       -3.3097431281
 H        -6.2221125083       -1.3659142736       -1.4946086412
 H        -5.7099956192       -1.6046228551       -3.0953653193
 H       -10.8597185956       -1.8578609867       -1.9438083531
 H        -9.7335081050       -0.6557507905       -1.3933553844
 H       -10.3495374386       -3.1822752360        0.2548475851
 H       -11.4017916248       -1.8831093917        0.3114518778
 H       -11.3291084523       -0.1552172867        4.8929610855
 H       -11.7951780789       -0.7424318880        3.3879871063
 H       -10.9228019745        2.0637581818        3.8460416795
 H       -12.5107982130        1.7667915747        3.8224143438
 H       -10.3345047928        5.7491374422        2.4902775556
 H       -11.9681944425        5.2347919720        2.5259079024
 H       -11.0972289855        7.4938490304        1.2131146853
 H       -12.3851792390        6.5491995330        0.5953858713
 H       -12.9653856305        9.1653370338       -1.5606006836
 H       -11.7363927379       10.1737702576       -2.2120800938
 H       -11.8217262750       11.6526293376       -0.0634660987
 H       -12.6533772054       10.3040115287        0.6132994349
 H       -17.0295379013       10.8932943929        1.9010510134
 H       -17.1062160328        9.1544884777        1.2493101904
 H       -17.4694490493       10.5128618090        0.0793283319
 H       -15.2506741244       12.2852752909        2.4111741797
 H       -13.8271240341       13.3139630201        1.9046496152
 H       -13.6236406684       11.6906241726        2.1272631578
 H       -16.9226375545       12.4982317870        0.3884669778
 H       -16.3710311152       12.1201214879       -1.1829492688
 H       -15.8737618610       13.5875653022       -0.4518671822
 H        -8.8416202596        8.0292810188       -3.0041165479
 H        -8.4797177964        6.7999938970       -1.9200293401
 H        -8.5079420633        8.4970087169       -1.2781047990
 H       -12.3326265798        6.6623296125       -2.2290413346
 H       -10.6880098365        6.5159433971       -3.1345712354
 H       -11.6324597394        7.8645749602       -3.4186078538
 H       -11.2396951609        3.4721508432       -0.9453414709
 H       -11.7018928226        1.7456400427       -1.0904563798
 H       -10.1709769570        2.2685267540       -0.4082355708
 H       -13.8552868567        2.4269241072        0.3309862198
 H       -13.4163294816        4.1649517701        0.2645785753
 H       -13.9186812717        3.4171990227        1.7720702260
 H       -10.2407354773       -2.8014206281        4.3113444846
 H       -10.2101287253       -3.7518892171        2.7912754347
 H       -11.4591975866       -2.4801432291        2.8869243336
 H        -7.3472309876       -1.1176203319        2.7667952468
 H        -7.4251750585       -2.8646205296        2.7678997852
 H        -7.8662516182       -1.8084757818        4.1990064112
 H        -9.7771773041       -0.4838679212       -4.4909127703
 H       -10.6229491013       -2.1003559008       -3.8851491850
 H        -9.6843938698       -2.0476607258       -5.3344430182
 H        -7.0517039873       -3.5724426572       -3.7131812950
 H        -6.9345058734       -2.2003079077       -4.9466525923
 H        -8.2382551184       -3.3808022164       -5.1031959935
 H        -3.8881040565        4.2011328327       -1.6694462350
 H        -5.4303662804        3.9359708186       -2.3539118960
 H        -4.0507914267        3.0587599820       -2.7920879072
 H        -3.3443116789        1.3940749436       -0.8005321469
 H        -3.9323316050        1.4416413539        0.8417573759
 H        -2.9908462586        2.7900893665        0.3000290545
 Na       -8.3083577226        1.5730767360        1.2991990871
