117

 C        -3.5577691805        2.7084762266        8.2585181143
 C        -3.9532888348        4.1650272670        8.1899794026
 O        -3.0680362788        5.0756533907        8.1375075548
 C        -5.4744441593        4.5080282408        8.4665709873
 C        -6.3893131007        4.0728080752        7.2016250123
 O        -7.0896752547        3.0963436048        7.3144926313
 C        -6.2998752798        4.9775678464        6.0363850865
 C        -6.1952567496        4.2931618378        4.6282266205
 C        -6.5139538489        5.2334031553        3.4801687336
 O        -7.3500960815        6.1094126961        3.6380481512
 C        -5.6071166015        5.1018584247        2.1655758556
 C        -5.5164949844        3.6258504774        1.7090703402
 O        -4.5486506250        2.9860029735        1.8889124539
 C        -6.8483214574        3.0158627992        1.1720227439
 C        -6.5856006666        2.1234953591       -0.0103126685
 C        -7.8944680010        1.4902357139       -0.5156554712
 O        -8.6015779319        2.0974403150       -1.3250887454
 C        -8.3657564800        0.0911525078        0.2253404441
 C        -9.5550231278        0.6086439514        1.0732476843
 O        -9.3775901137        1.2734872781        2.0570538152
 C       -11.0454716158        0.4005439624        0.3701345129
 C       -12.1369981686        1.3805628532        0.8008318061
 C       -11.9458320429        2.7984303773        0.2743413819
 O       -10.8687586023        3.1409067618       -0.0998021745
 C       -13.2062609383        3.8347273478        0.1564776480
 C       -13.8664384056        3.6889891174       -1.3951502063
 O       -13.1777911366        3.4014692799       -2.3238464986
 C       -15.3664264288        3.9443700619       -1.5989591715
 C       -15.7708858236        3.8849760326       -3.0900154372
 C       -15.3268721112        5.3557446621       -3.6157121387
 O       -15.0272687352        6.2759008812       -2.8549630109
 C       -15.4178068432        5.6233079379       -5.0926293039
 C       -13.9197170238        5.4829393924       -5.6556392747
 O       -13.6608221069        4.7003080805       -6.5604292909
 C       -12.6988147027        6.2701220962       -5.0945717318
 C       -11.2998716197        5.7759824103       -5.6712932045
 C       -10.8580223012        4.5134204738       -4.9066290874
 O       -10.8688802180        4.5600695918       -3.6993981378
 C       -10.2357201567        3.2933981954       -5.7028173670
 C       -11.1747007756        1.9693308148       -5.2209637607
 O       -10.6942167025        1.2675933752       -4.3179548217
 C       -12.4309080006        1.7271092909       -5.9770054551
 C       -10.3753945391        3.3559807848       -7.2560510118
 C        -8.7445889803        3.1735816757       -5.1389518678
 C       -16.4252510177        4.6683281655       -5.8623298004
 C       -15.7824171018        7.0928790901       -5.3794722954
 C       -14.2465763044        3.5818802869        1.3982194850
 C       -12.6918028799        5.3263182570        0.1494792021
 C        -8.7697626325       -0.8723672130       -0.9131898031
 C        -7.1066376592       -0.5613558057        0.9079134914
 C        -6.3099271860        6.0762363222        1.1013114017
 C        -4.2013078728        5.7580982107        2.4898049705
 C        -6.0255933641        3.8485909129        9.7615560615
 C        -5.4221450392        6.0513455636        8.5599946381
 H        -2.4701416415        2.6777974994        8.2845029027
 H        -3.7734105222        2.3048146593        7.2210474508
 H        -4.1453401230        2.1904175804        8.9589766254
 H        -5.4449993470        5.6886193397        6.1405329018
 H        -7.1928014580        5.5655107030        6.1191342655
 H        -6.8948393409        3.5014585695        4.5294769102
 H        -5.1445816689        4.0380084271        4.5872364011
 H        -7.3938613044        3.8784063059        0.7497187315
 H        -7.3870852779        2.5537542820        1.9973621339
 H        -5.7963302108        1.4224422089        0.2060015747
 H        -6.1009712357        2.7493618039       -0.8020131253
 H       -11.2888106707       -0.5602024700        0.8718531690
 H       -11.0077054964        0.2621194273       -0.7382354268
 H       -12.2077894224        1.3733055820        1.8852871201
 H       -13.1622630611        0.9346641364        0.4270869983
 H       -15.6309501761        4.8700065625       -1.0878709689
 H       -15.9289493870        3.1393616428       -0.9511093943
 H       -16.8581503025        3.6494897368       -3.2720662682
 H       -15.1060460062        3.2053543344       -3.6611633622
 H       -12.5925954381        6.2768164814       -4.0092808519
 H       -12.8855392977        7.2747692729       -5.3935642513
 H       -10.6308760932        6.6345632236       -5.4395549854
 H       -11.3675651937        5.6047315494       -6.7051613973
 H       -12.2958841573        0.9200168138       -6.7491532147
 H       -12.9166505952        2.5854215128       -6.3432435409
 H       -13.2233293636        1.3756495924       -5.2179866987
 H        -9.5304121612        3.8192773487       -7.7725486415
 H       -11.2419592550        3.9199953162       -7.5751677809
 H       -10.3306764272        2.3574359436       -7.5289399693
 H        -8.7376220890        3.0327658689       -4.0774879637
 H        -8.2901091915        4.1496929376       -5.3706139788
 H        -8.1836427809        2.5173592285       -5.6323496668
 H       -16.0303984193        3.6633016922       -6.1328719522
 H       -16.6651449147        5.1409407341       -6.8174198901
 H       -17.4151607797        4.5626376723       -5.2426592039
 H       -15.4430990881        7.4857431934       -6.2829774974
 H       -15.4603530477        7.6552325530       -4.4852891419
 H       -16.8432263339        7.0293803566       -5.4871707041
 H       -13.8033250889        3.6442876478        2.4206713716
 H       -14.6482792538        2.5348011230        1.2689636430
 H       -15.0527400350        4.3419790873        1.3100205581
 H       -12.3852304247        5.5964492546        1.1917838485
 H       -13.5163531137        6.0141083156       -0.2125889336
 H       -11.8109400032        5.4889712477       -0.4535931007
 H        -9.3084768310       -1.6420839126       -0.4558589938
 H        -7.7601501202       -1.1820406572       -1.4247491306
 H        -9.3901157754       -0.3145864172       -1.6287345422
 H        -6.8323521053       -0.2184717861        1.8922227244
 H        -6.2728832037       -0.3338419600        0.2648571537
 H        -7.2889036900       -1.6791005990        0.9572157397
 H        -6.2751247773        7.0867363911        1.5205253354
 H        -7.4150177570        5.9487265863        1.0828465427
 H        -5.8550492634        6.1352362562        0.1176909396
 H        -4.3488610685        6.8283923728        2.2975397767
 H        -3.3738036816        5.3730199703        1.8153828041
 H        -3.9685785555        5.7109162551        3.5674622724
 H        -6.2181916308        2.7939820043        9.5664095093
 H        -7.0001302981        4.2567172562       10.1685643076
 H        -5.2491909858        3.9248215370       10.5221462830
 H        -6.3886439440        6.3629164738        8.1406890120
 H        -4.6183245434        6.5133527997        7.9196080724
 H        -5.2818405620        6.3944658000        9.6125725246
 Na      -10.8291286979        2.4121119942       -2.3748909171
