117

 C        -4.8947047197        4.8311218397        0.7036498576
 C        -5.4557826718        3.4945481683        0.4326325247
 O        -6.2899696481        2.9575598677        1.2065573014
 C        -4.9534950594        2.5908673597       -0.7832285841
 C        -5.8258061474        1.2661427054       -1.0853723044
 O        -6.8576815863        1.0679678529       -0.4815353680
 C        -5.3896708863        0.5265311114       -2.3085679484
 C        -6.1666961385       -0.8453807028       -2.4749824548
 C        -7.6030353791       -0.6482173998       -3.1122485684
 O        -8.0734247115        0.3884822357       -3.5697721437
 C        -8.4027388694       -2.0241089959       -3.1371736598
 C        -8.8329108610       -2.3447637112       -1.6256485054
 O        -7.9857771151       -2.8309235585       -0.8298277879
 C       -10.2649519973       -2.2757790750       -1.1919712888
 C       -10.3063845447       -2.3669808616        0.3169540448
 C        -9.3955082186       -1.5858370325        1.2121868424
 O        -8.6181722433       -0.6977623809        0.8765192438
 C        -9.5414235283       -1.8479264921        2.7089584419
 C        -9.7762221312       -0.2604873285        3.3789328978
 O        -8.7535694900        0.4962921449        3.1073728612
 C       -11.0258281647        0.2321575158        3.8540264141
 C       -11.4362394105        1.6513964799        3.2872875434
 C       -11.9484851216        1.7111424671        1.8382825570
 O       -12.1953977360        0.6082310335        1.4131301204
 C       -11.7370815383        3.0146794230        0.9808696431
 C       -10.7432423505        4.1293927891        1.6949997681
 O        -9.6517974879        3.8119439043        2.1955489038
 C       -11.3516560244        5.5524882289        1.9720231645
 C       -11.7709350447        6.4418478948        0.6910460403
 C       -10.8062859857        6.5242777745       -0.5128327304
 O        -9.9644655232        5.6150783586       -0.6024006241
 C       -10.7524078317        7.4681549314       -1.6880957000
 C       -10.9356268446        9.0138019958       -1.1554085166
 O       -10.1823287605        9.4518731977       -0.3420073248
 C       -12.2146283024        9.8398625228       -1.4884022825
 C       -12.3192258987       11.1321221244       -0.6751853645
 C       -13.6741016124       11.8331794893       -1.0336604506
 O       -13.8511116530       12.1937202200       -2.1936175203
 C       -14.7173210579       12.0201250322        0.2158359904
 C       -15.3577362066       10.5274071261        0.5283939838
 O       -14.6820577826        9.5002598937        0.3601768856
 C       -16.7836997078       10.1709584727        0.9043750842
 C       -13.9502621975       12.2878541370        1.5542340739
 C       -15.6789417089       13.0743693103       -0.1755518863
 C        -9.2602175457        7.4848128749       -2.3476885578
 C       -11.6513833265        7.0494119214       -2.8735054622
 C       -11.3909917907        2.6480951660       -0.4894313908
 C       -13.2323665475        3.5147682371        0.9161316371
 C       -10.6792837612       -2.7736858078        3.1914177922
 C        -8.2263415444       -2.4134285775        3.1578424904
 C        -9.5961541800       -1.7956546071       -4.1273168542
 C        -7.5979659713       -3.2311808091       -3.6748682664
 C        -4.7873696635        3.5156295058       -2.0971238962
 C        -3.6071220555        1.9818233400       -0.2508023100
 H        -4.0482026226        4.7594005222        1.3247625845
 H        -5.6283109948        5.3529583739        1.4137735420
 H        -4.6433017278        5.5503503870       -0.1359657597
 H        -4.3937519754        0.3719676130       -2.4562909898
 H        -5.6958670072        1.1326967916       -3.1517345316
 H        -6.3270164078       -1.4805315895       -1.6367923733
 H        -5.6307046084       -1.5663552690       -3.0089056932
 H       -10.8363700853       -3.0880055345       -1.5826472924
 H       -10.7117855593       -1.3055270952       -1.5712361055
 H       -10.0673378985       -3.3495946301        0.5955030432
 H       -11.3144029210       -2.2984162968        0.6691639508
 H       -10.7686772380        0.3806161132        4.9631147726
 H       -11.8238612427       -0.5459360399        3.7721481038
 H       -10.6536324456        2.4806055094        3.4148252293
 H       -12.2350974569        2.0586855554        3.9631750085
 H       -10.5805080087        6.1573081432        2.5364680859
 H       -12.2992213158        5.5759372349        2.6122376179
 H       -11.9428335453        7.5404642083        1.0523559932
 H       -12.8232055565        6.0997216183        0.4640756283
 H       -12.9916855849        9.0285415670       -1.2870482714
 H       -12.3603174887       10.0859841596       -2.5598582796
 H       -11.4069604974       11.7479550193       -0.9468869272
 H       -12.2216949128       10.9538121123        0.3402063543
 H       -17.1654426611       11.0543764112        1.4099361133
 H       -16.6353692303        9.5381754936        1.7932088394
 H       -17.2985457566        9.6780507181        0.1753364021
 H       -14.5366787191       12.5592676601        2.4390289853
 H       -13.2413097276       13.1136589972        1.4640503503
 H       -13.3887938608       11.4816412448        1.8839685331
 H       -15.9515754339       13.6196277627        0.6457257227
 H       -16.5740531788       12.6341510381       -0.5223549605
 H       -15.3892508818       13.8136773033       -0.9787001635
 H        -9.1148710505        8.2351608374       -3.1711520569
 H        -9.0465912526        6.5589717000       -2.8257403032
 H        -8.5148195197        7.7758608857       -1.6658981343
 H       -12.7159445787        7.3627069848       -2.8547897481
 H       -11.5952402101        6.0050802809       -3.0053281542
 H       -11.3622931234        7.5857110530       -3.7807833021
 H       -11.3060234865        3.5157594518       -1.1703178540
 H       -12.2562548437        2.0425605881       -0.7905693443
 H       -10.4688377636        2.1078787388       -0.6389009402
 H       -13.9055258618        2.6792850837        0.6702016156
 H       -13.3917533749        4.3665850744        0.2264923104
 H       -13.5515479726        3.8616480351        1.8782297310
 H       -10.6996585331       -2.7592518746        4.2521633328
 H       -10.5230257198       -3.6944256249        2.9177653292
 H       -11.6475336195       -2.4711139674        2.7901383234
 H        -7.4294037097       -1.7213304593        2.9118528731
 H        -8.0868896515       -3.2070743843        2.3867439058
 H        -8.0906174743       -2.7079733259        4.1423430698
 H        -9.4290432014       -2.2843303971       -5.0574268624
 H        -9.9000313093       -0.8275693229       -4.1194805914
 H       -10.4399870487       -2.2521963490       -3.6613582772
 H        -6.6366383618       -3.2254937806       -3.2053679464
 H        -7.6598757908       -3.2773644900       -4.7240751939
 H        -7.9936190171       -4.1529987721       -3.3238760501
 H        -4.0385913995        4.3547396627       -2.1467518017
 H        -5.7362800577        3.9128346461       -2.5168054054
 H        -4.6294510551        2.8211179369       -3.0129470792
 H        -3.1087544853        1.4705524908       -1.1465401256
 H        -3.9510971041        1.2715925833        0.4671633866
 H        -3.0104641886        2.7077605605        0.3124032811
 Na       -8.2957305657        1.7925848487        1.2743550143
