117

 C        -7.4147798557       -6.2363283126        2.7420149960
 C        -8.9109495987       -5.6980816810        2.7301538398
 O        -9.7608666058       -6.5493653153        2.5282103653
 C        -9.2895823790       -4.2271787862        2.8132840805
 C       -10.2712044374       -3.8897464234        1.5464567250
 O        -9.6837040410       -4.0257036903        0.4586052017
 C       -11.7466124547       -3.4841334334        1.8173169962
 C       -12.7284423987       -3.3971826949        0.6571246715
 C       -12.6527898347       -2.1692529606       -0.3458695946
 O       -12.1243649604       -2.2562123347       -1.4237245022
 C       -13.3442460198       -0.7497467348        0.2084184652
 C       -11.9939950885        0.0413107373        0.4694326368
 O       -11.4055307638       -0.1533345344        1.5287401996
 C       -11.5503842959        1.0207818973       -0.5484423857
 C       -10.0731058985        1.3091427190       -0.4545417534
 C        -9.5297772190        2.5187024929       -1.1905887224
 O        -9.4325633444        3.5418526045       -0.5107863325
 C        -9.2590116358        2.5656047717       -2.7291524419
 C       -10.4835476241        3.4277082664       -3.3694612635
 O       -11.5465026898        3.4969734964       -2.7882036587
 C       -10.2974115066        4.1186091038       -4.8300298352
 C       -11.1135386734        5.3773285898       -4.6434268908
 C       -10.6384471537        6.0570028672       -3.3890114974
 O        -9.5820290686        5.6909519120       -2.8144848676
 C       -11.5177159674        7.1246126030       -2.7151279019
 C       -10.5288298496        7.9952599954       -1.8229886861
 O        -9.9289323817        7.4860025882       -0.9076411840
 C       -10.2455142386        9.4368028962       -2.3171384813
 C        -9.4100443019       10.1732255056       -1.2544989175
 C       -10.2315858939       10.6000134564       -0.1406250297
 O       -11.4784913910       10.4940697562       -0.0790183848
 C        -9.4734931942       11.1216922993        1.1677234831
 C        -8.4630512069        9.9381652430        1.6767080356
 O        -7.4770655970        9.7646201193        1.0282236553
 C        -8.8426943592        9.1174957385        2.8567501033
 C        -7.8363354463        8.0607341231        3.3472717040
 C        -7.7102305091        7.0411845243        2.1200386704
 O        -8.6280361651        6.9988402482        1.2966989402
 C        -6.4920040273        6.0835501959        1.9236836422
 C        -5.7137250933        6.4958517587        0.6171395079
 O        -6.0991396592        6.1006962600       -0.4549370148
 C        -4.4539162782        7.3092558379        0.7821973926
 C        -5.7190446171        6.0538364360        3.2406940638
 C        -7.0772203651        4.6995434111        1.8557739210
 C        -8.6567170475       12.3567335852        0.7883295181
 C       -10.6373207989       11.4806364736        2.2421168581
 C       -12.4627442766        7.9938856906       -3.6267201809
 C       -12.3933738350        6.3688544347       -1.6844433578
 C        -7.8796657698        3.1872656658       -2.9836981324
 C        -9.1906875810        1.1069778780       -3.3816021200
 C       -14.2130648708       -0.1005842019       -0.8824874557
 C       -14.0991849823       -0.8388279289        1.5514045613
 C        -9.8598195282       -3.9568163162        4.2978693365
 C        -8.0109278202       -3.3405426914        2.4921078590
 H        -7.1282289829       -6.3949491409        1.6950896957
 H        -7.2971481473       -7.2118488295        3.0896243152
 H        -6.6828048040       -5.5418526575        3.1276335893
 H       -11.7600464406       -2.5393041021        2.3636919345
 H       -12.2309415195       -4.3396238664        2.4687742979
 H       -13.7154010479       -3.3919124105        1.1489668307
 H       -12.7191434703       -4.3069470299       -0.0050356232
 H       -12.0706313139        1.9269190814       -0.3882548412
 H       -11.8365723352        0.6688024430       -1.5505794194
 H        -9.4871673431        0.4227802126       -0.8231199475
 H        -9.8364615823        1.5384737634        0.6198779076
 H       -10.6308970581        3.5718526880       -5.7188565474
 H        -9.3011457093        4.4060582584       -4.9073967904
 H       -12.1125679273        5.1475139924       -4.5556505746
 H       -11.0592346097        6.1631405553       -5.4245771087
 H       -11.1269114976        9.9816684690       -2.3822048223
 H        -9.8131836596        9.3432687479       -3.2844519042
 H        -8.7708755921       11.0870262334       -1.5956289273
 H        -8.7714144646        9.4225659800       -0.8475261987
 H        -9.7931351415        8.6438711532        2.5892512937
 H        -9.0043064870        9.8038060196        3.7652405081
 H        -8.0716924827        7.6403050563        4.3037113260
 H        -6.9806788557        8.7138675885        3.5596734111
 H        -4.5176599789        8.3986908600        1.1006537666
 H        -3.9159463608        7.2101287519       -0.0885729856
 H        -3.8632419366        6.8539276542        1.6306806067
 H        -6.3784122941        5.7587009637        4.0846341127
 H        -5.2367217632        6.9720574268        3.4965124725
 H        -5.0484006862        5.2415524441        3.1411907993
 H        -6.2825389791        3.9754795991        1.7766364679
 H        -7.8440425065        4.6395316212        1.0195395787
 H        -7.5239289821        4.3728709771        2.7866035741
 H        -8.3150354943       12.8242062727        1.7132852817
 H        -9.1503156413       13.0032197944        0.0507192905
 H        -7.7857318008       12.0906208601        0.2647463999
 H       -10.2662823550       11.4024084324        3.2799484633
 H       -11.5028003127       10.8509234162        2.1407401005
 H       -11.0387590122       12.4941779960        2.0181168812
 H       -13.0155123315        7.1984124432       -4.2150766109
 H       -11.8597406963        8.6847693679       -4.2871860272
 H       -13.2072801688        8.5369899899       -3.0947903197
 H       -13.2332186012        5.7036105589       -2.0934343811
 H       -12.9546755771        7.0407029323       -1.0288886922
 H       -11.6298765087        5.7422874746       -1.1545009455
 H        -7.5417821904        3.1797374412       -4.0293907315
 H        -7.2335541982        2.4837360173       -2.5495949841
 H        -7.7112875404        4.1297595524       -2.4511786528
 H       -10.0680719543        0.4735213985       -3.2091093095
 H        -8.3543845998        0.5074061651       -2.9197697957
 H        -8.9294974982        1.2185284465       -4.4345139423
 H       -14.9608463570       -0.7293233866       -1.3181515203
 H       -13.7705716345        0.1410003520       -1.8435455000
 H       -14.6931864147        0.7787217631       -0.4425487643
 H       -14.8930209518       -1.5689298992        1.5039842946
 H       -14.6527571369        0.0640863411        1.8206270291
 H       -13.4325180279       -1.1967021506        2.3746877802
 H       -10.7046581552       -4.6148734898        4.5414902981
 H       -10.2579589543       -2.9562691128        4.3671065278
 H        -9.0197696775       -4.0551889582        4.9887134472
 H        -7.5175724433       -3.1922538300        3.4156823585
 H        -8.3789215565       -2.3542306345        2.3375556064
 H        -7.4174974609       -3.6361877744        1.6419283752
 Na       -8.5430053221        5.7796134225       -0.7640044863
