117

 C        -3.3960561595        2.8261869529        8.1123088390
 C        -3.8396486621        4.2917700598        8.2427561609
 O        -3.0533866839        5.1900870586        8.0641385200
 C        -5.4464579573        4.7014382325        8.4254192845
 C        -6.3583881461        4.0580237603        7.1738213101
 O        -7.0558807978        3.1182065883        7.2970971824
 C        -6.2789195966        5.0042247777        5.9295804459
 C        -6.2136931530        4.2900881667        4.5595128965
 C        -6.5338337359        5.3795582904        3.4818235234
 O        -7.4159910599        6.2368528035        3.5300769999
 C        -5.6166121431        5.2918283513        2.1983542975
 C        -5.6085775629        3.7123981304        1.7472331164
 O        -4.6157724402        2.9858324158        1.8461387124
 C        -6.8927557439        2.9521683985        1.1413523652
 C        -6.6435663096        2.1268952414       -0.1746371011
 C        -7.9081217828        1.3940523491       -0.5917170487
 O        -8.5753665642        1.9255420773       -1.4629873744
 C        -8.3911946647        0.0637744342        0.0372198055
 C        -9.5881696017        0.6076679971        1.0378637773
 O        -9.3689004157        1.2324406103        2.0368201067
 C       -11.0287692552        0.3914076721        0.5046393702
 C       -12.0550622885        1.4383115775        0.9388609583
 C       -11.9183653482        2.8188964975        0.2806720365
 O       -10.8684143948        3.2768581916       -0.1367233295
 C       -13.1624389572        3.8392738168        0.1531230656
 C       -13.7240850400        3.6458670973       -1.2645910881
 O       -12.9714631334        3.3558810241       -2.1643349012
 C       -15.2274915609        3.8117671370       -1.5655783570
 C       -15.6766296293        3.9573977462       -2.9763799469
 C       -15.3065088529        5.3146922642       -3.6438151514
 O       -14.9826874872        6.1285103185       -2.8415045329
 C       -15.3594436408        5.6213388600       -5.1594825798
 C       -13.9113313982        5.2780542552       -5.7089261784
 O       -13.6506034185        4.4788745575       -6.6118287173
 C       -12.8470267955        6.2221682462       -5.1044773332
 C       -11.4477522944        5.7804429659       -5.5262992155
 C       -10.9140912110        4.4879090119       -4.8428209483
 O       -10.9797514565        4.4591695227       -3.6072618045
 C       -10.2071620347        3.2117421674       -5.6280748828
 C       -11.0498884306        2.0141690024       -5.1992995818
 O       -10.8460466822        1.2860670416       -4.2953898872
 C       -12.3185283969        1.7701758716       -6.0439976322
 C       -10.3535100741        3.3495548707       -7.1422993211
 C        -8.7405139906        3.1498346888       -5.2238841352
 C       -16.4487432303        4.7638703413       -5.8076276881
 C       -15.7738683929        7.1217056986       -5.2675647615
 C       -14.1578072714        3.6483700586        1.2929533777
 C       -12.6759168610        5.2825602798        0.2737245131
 C        -8.8752205763       -1.0457949729       -0.9560269161
 C        -7.3589840635       -0.5279026366        1.0314897732
 C        -6.2885477478        6.0677597874        0.9781147218
 C        -4.2255453312        5.6657778128        2.5820138919
 C        -6.0576564120        4.1518119541        9.6781707170
 C        -5.4993853358        6.2234448348        8.5045596383
 H        -2.2983551146        2.8337260432        8.2547293407
 H        -3.5836511749        2.3663182001        7.1489989113
 H        -4.0249276977        2.3461869607        8.8590632218
 H        -5.4641592852        5.7129410213        6.0160773488
 H        -7.2200058593        5.6028436823        5.9442026497
 H        -7.0301147167        3.6589563444        4.4733054797
 H        -5.2754120742        3.9015513380        4.4342931999
 H        -7.7323044236        3.5803592194        1.0621570904
 H        -7.0374234366        2.2502737334        1.9416940886
 H        -5.8391017180        1.4307328107       -0.0273215269
 H        -6.2639778765        2.8001668854       -0.9978996688
 H       -11.2893920152       -0.6614361370        0.6926312491
 H       -10.9260763704        0.5619841003       -0.6099074411
 H       -12.1328834424        1.6174827760        2.0000791548
 H       -13.0392164760        1.0555670646        0.6273761194
 H       -15.6170264996        4.6550066896       -0.9443784086
 H       -15.8135257421        2.9101839973       -1.1272666649
 H       -16.7812460854        4.0062939586       -2.8536707673
 H       -15.4355341085        3.1122279739       -3.6660964568
 H       -13.0075544845        6.2086288197       -4.0304312010
 H       -12.9779288737        7.2294706264       -5.4999806285
 H       -10.8548076429        6.6163303255       -5.3740746202
 H       -11.6290687701        5.5731295116       -6.6128346907
 H       -12.2468910576        0.7699531629       -6.5213314358
 H       -12.6001845691        2.5469408740       -6.8304961102
 H       -13.2102427495        1.8377505111       -5.4017987699
 H        -9.4491617610        3.5042901427       -7.6863530017
 H       -11.0009024117        4.0993066445       -7.4396465688
 H       -10.6396523438        2.3433429316       -7.4579060048
 H        -8.6158020764        2.8653729267       -4.1893237880
 H        -8.2104278800        4.1016452427       -5.4434645707
 H        -8.2516971474        2.4474845815       -5.8977068313
 H       -16.1333266959        3.7119997238       -5.8362984320
 H       -16.5635353615        5.0360112255       -6.8496294679
 H       -17.4248275677        4.8625595009       -5.2712836918
 H       -15.7504912319        7.5890292576       -6.2226639249
 H       -15.2236421322        7.5931892518       -4.5826956054
 H       -16.8359151282        7.0437642080       -5.0107733523
 H       -13.6154266774        3.8019238588        2.2552469095
 H       -14.4551207172        2.5569046648        1.2967195667
 H       -15.0427304801        4.3332115059        1.2147775368
 H       -12.7471328641        5.6162051462        1.2963394348
 H       -13.3056829705        5.8633104231       -0.3542821227
 H       -11.6665326711        5.4453544878        0.0143640407
 H        -9.4742167294       -1.6750506673       -0.2453675851
 H        -7.9975657121       -1.4910219361       -1.3636973524
 H        -9.5761123010       -0.6729253199       -1.6913391257
 H        -7.3208129145        0.0305748137        1.9458799107
 H        -6.3491882042       -0.3757474947        0.5907489627
 H        -7.5375404254       -1.4976981714        1.2424348876
 H        -6.5191391025        7.1178435961        1.3407437220
 H        -7.2333729042        5.6938595187        0.7227644575
 H        -5.5890163332        6.2150088556        0.1434522804
 H        -3.8970794763        6.6709890609        2.1796424760
 H        -3.5439817208        4.8890733939        2.2300403362
 H        -4.2206952031        5.8067496155        3.7038398580
 H        -6.2970701815        3.0992008688        9.4588771832
 H        -6.8878849577        4.6278643472       10.1226890436
 H        -5.2159057501        4.1135093766       10.4060156495
 H        -6.4935207441        6.5016195258        8.9776909907
 H        -5.3917919963        6.8144273546        7.5481809465
 H        -4.6552439868        6.4795196229        9.1595100807
 Na      -10.8546069492        2.2360089593       -2.2610271599
