117

 C        -4.9457356878        4.1134177641        1.6044913507
 C        -5.8030888879        3.0188484668        0.9491083239
 O        -6.7902581890        2.6428920069        1.5520980629
 C        -5.3917130541        2.4737959745       -0.5978484293
 C        -6.2440982155        1.2120584035       -1.1924701656
 O        -7.3193517770        0.8524963979       -0.6535079388
 C        -5.8679177116        0.5035662090       -2.4210333278
 C        -6.0084036436       -1.0301298869       -2.4811359881
 C        -7.5504607959       -1.4076761368       -2.8021774853
 O        -8.2781644627       -0.5062297279       -3.1731358625
 C        -8.1885322209       -2.8905641685       -2.4429093522
 C        -8.9113817078       -2.8902858853       -0.9818059599
 O        -8.2822326617       -3.2990561074        0.0052658466
 C       -10.3662233577       -2.5876438346       -0.6742149692
 C       -10.6541650560       -2.4624563587        0.9013324500
 C        -9.9079338171       -1.3023089899        1.4948555089
 O        -9.4179449554       -0.3231186747        0.8070968030
 C        -9.8836644372       -1.2495960024        3.1592184940
 C        -9.8870068496        0.3885605300        3.6317677501
 O        -8.8596848596        1.0229481766        3.3484103650
 C       -10.8350465537        1.1355016345        4.4797914975
 C       -11.2038215153        2.5465977093        3.7697271158
 C       -11.9244645392        2.2109267687        2.4708787522
 O       -12.2330045714        1.0564409790        2.2954714574
 C       -11.8846160308        3.2047637746        1.1800547118
 C       -10.5364513079        3.9949610439        1.0914080199
 O        -9.4180643899        3.4792952199        0.8748011084
 C       -10.3956105161        5.6386688208        1.3384669665
 C       -10.9386260682        6.6351983877        0.1682258255
 C       -10.5169459522        6.1593205369       -1.3270003666
 O        -9.8032647323        5.2013434350       -1.5792092252
 C       -11.1838946087        7.0152650735       -2.4852910650
 C       -10.8078944803        8.5183819897       -1.8893941594
 O        -9.6823979602        8.8389693456       -1.5022641443
 C       -12.0305430447        9.5451830374       -1.9536443823
 C       -11.8997369608       10.9114907835       -1.1934837010
 C       -13.0235251361       12.0865959554       -1.5049757885
 O       -13.3378764524       12.4797061038       -2.6070746530
 C       -13.8878973224       12.5976406459       -0.2936729097
 C       -14.7814563650       11.2781646676        0.1397535924
 O       -14.3251581759       10.1240378313        0.1463450388
 C       -16.1492889305       11.6501636936        0.6498732862
 C       -12.9293829113       13.0994349866        0.8439494258
 C       -15.0072696895       13.6662947144       -0.5716627243
 C       -10.5719807407        6.8186862449       -3.8782112333
 C       -12.8021529357        6.8158863280       -2.3748976187
 C       -12.0375471034        2.3544109162       -0.1458355246
 C       -13.1839062924        4.2182514000        1.2857255864
 C       -11.0169547264       -1.9650044380        3.6768232282
 C        -8.4510135974       -1.7670415295        3.5705892292
 C        -9.2623028517       -3.3232820992       -3.5804898597
 C        -7.1035566565       -4.0978318967       -2.4586867078
 C        -5.2837576131        3.6738838996       -1.5373308280
 C        -3.9436869699        1.9768659293       -0.3794140028
 H        -5.2262741849        4.6298283632        2.5080495321
 H        -4.4587930306        4.8260264306        0.8736754619
 H        -4.0601411127        3.4102167930        1.6785467735
 H        -4.9373202597        0.7021351743       -2.7982728875
 H        -6.6776469638        0.9434784208       -3.1481354510
 H        -5.7532214569       -1.4172395351       -1.4713085910
 H        -5.3850089843       -1.4918275187       -3.2645323279
 H       -10.9320650819       -3.4952429511       -1.0272311025
 H       -10.6949128092       -1.6742543297       -1.1129283820
 H       -10.3747389086       -3.3099645126        1.5290667126
 H       -11.7265097296       -2.2810146505        0.9740908383
 H       -10.2355100952        1.4130851371        5.3176693277
 H       -11.8573961359        0.7192570420        4.5932793098
 H       -10.2518107596        2.9877449619        3.3749546757
 H       -11.7392055423        3.1440599483        4.4346757005
 H        -9.3353774289        5.7583656987        1.3739012112
 H       -10.8023842361        6.0605020709        2.3144128273
 H       -10.2944074029        7.5347665131        0.2264853312
 H       -11.9939821846        6.9784835781        0.2750431961
 H       -13.0552591147        9.2321601963       -1.7082025176
 H       -12.0766747905        9.8098988859       -3.0635641523
 H       -10.8913824575       11.4190884749       -1.3937608862
 H       -11.9375895167       10.8173142760       -0.1476245232
 H       -16.1858132570       12.7040950794        1.0125634238
 H       -16.4007158587       10.7885591032        1.2977464069
 H       -16.7270284813       11.6731460722       -0.1908828606
 H       -13.3441947412       13.1200520848        1.8088337773
 H       -12.7690517326       14.1771364481        0.6120213766
 H       -11.9649150762       12.7316317821        0.7890399824
 H       -15.1266362115       14.2162114243        0.2705723539
 H       -15.9382388198       13.4434898769       -0.9611350482
 H       -14.5139385283       14.2659643118       -1.3693936685
 H       -10.5848524390        7.7679323723       -4.4629259125
 H       -10.9537398615        6.0559876448       -4.5813311042
 H        -9.6066581519        6.4377045147       -3.6343570320
 H       -13.0255841281        6.6083720467       -1.3409018337
 H       -13.2202099439        6.1942552901       -3.1225211343
 H       -13.1570974561        7.7531216103       -2.7354792123
 H       -12.6259700181        2.9466946718       -0.8441725635
 H       -12.5806291183        1.4841845543        0.2494554597
 H       -11.2115003640        1.9036606350       -0.6357240874
 H       -13.9320638293        3.8206194574        2.0054759407
 H       -13.7259310020        4.3922947052        0.3796198540
 H       -12.9257948514        5.1849990504        1.7053047107
 H       -10.7082789807       -2.8337258135        4.3721084736
 H       -11.7362946235       -2.3187968904        2.9610064343
 H       -11.6368317083       -1.3015104009        4.3220682204
 H        -7.6674072224       -0.9935306281        3.4064275738
 H        -8.2964797321       -2.7061671590        2.9614033613
 H        -8.4646005397       -2.1831882462        4.5719577455
 H       -10.0581884202       -3.9341086514       -3.1393036642
 H        -8.7198739290       -3.8840646305       -4.2349577915
 H        -9.7494545735       -2.4949970691       -4.0770161067
 H        -6.3730640221       -3.9366111557       -1.6494539887
 H        -6.4378590977       -4.0900087464       -3.2626558510
 H        -7.6949456134       -5.0307470717       -2.4474335219
 H        -4.3779061670        4.1646922585       -1.4825721774
 H        -6.0088417730        4.4872271804       -1.4009364426
 H        -5.2528464540        3.5093819418       -2.6474186612
 H        -3.5790846167        1.3970405438       -1.3358833512
 H        -3.9679703189        1.1823308413        0.3713030770
 H        -3.2513651191        2.8102362705       -0.1428514517
 Na       -8.4021448472        1.4579277505        1.0727268216
