117

 C        -4.6200392313        3.9458735986        1.2793531267
 C        -5.5822903852        2.9525673633        0.9041639246
 O        -6.5154124045        2.5727948100        1.5946270757
 C        -5.2555271744        2.3211388771       -0.3979374192
 C        -6.2372640698        1.0396032668       -0.9114368520
 O        -7.4556700814        1.0658465693       -0.6940888240
 C        -5.9269094659        0.2792910050       -2.2195308315
 C        -6.3699204708       -1.2197087620       -2.0068628745
 C        -7.7472053242       -1.5364368522       -2.5490245516
 O        -8.5880402054       -0.7529761361       -2.9333444837
 C        -8.1502834222       -3.0602776959       -2.1438585503
 C        -8.8068058888       -2.9569169763       -0.6447145889
 O        -8.1715178848       -3.2328309766        0.3381550846
 C       -10.3164259706       -2.4327278115       -0.5198043446
 C       -10.8232515533       -2.3693545074        0.9650517603
 C       -10.1559064762       -1.3020248582        1.7172814647
 O        -9.4501140053       -0.5053468013        0.9824723496
 C        -9.9812920506       -1.1321030252        3.1670026666
 C        -9.9114264276        0.4321749232        3.4692886912
 O        -8.8553237621        0.9768125338        3.2437845554
 C       -10.9134979904        1.1706292540        4.4634587134
 C       -11.2173899975        2.5401113880        3.7773814719
 C       -11.8566380932        2.2058500097        2.4355040042
 O       -12.3926821660        1.1607258725        2.1861504097
 C       -11.9405330020        3.3655479176        1.1694493731
 C       -10.5666132620        4.0372808146        0.7770538009
 O        -9.6026690840        3.3855614788        0.4502056893
 C       -10.3061950537        5.5244833618        1.0803048784
 C       -10.8154631515        6.4437632584        0.0213352093
 C       -10.7406353695        6.1710513272       -1.4631411300
 O       -10.0896720983        5.1725147227       -1.7456448191
 C       -11.3730798228        7.1506449587       -2.4736751083
 C       -11.0874057117        8.6745108933       -2.1857031008
 O        -9.9093393759        9.0472344185       -2.0847670741
 C       -12.1771767514        9.6779310679       -1.9887931242
 C       -11.6333473828       11.0395974380       -1.5480238914
 C       -12.7502631568       12.0196885228       -1.7714739797
 O       -13.0736113007       12.3107817829       -2.9251749641
 C       -13.6168692106       12.5356478465       -0.5312612334
 C       -14.5633332665       11.4672422965        0.1717545192
 O       -14.1591830343       10.3045216952        0.1523407555
 C       -15.8935518268       11.9739189078        0.8550618848
 C       -12.7487132744       12.9767684316        0.7676723066
 C       -14.3826068374       13.8317013851       -1.1814000754
 C       -10.6365217260        6.8122108240       -3.7828237779
 C       -12.9296165737        6.7762425243       -2.2631420733
 C       -12.2251029551        2.7020847325       -0.2106414442
 C       -13.0406159873        4.3334163673        1.7163129733
 C       -11.0540382910       -1.6931783913        3.9776059606
 C        -8.5398610903       -1.7595325587        3.4855556797
 C        -9.1803750875       -3.5995598273       -3.2210008533
 C        -6.7907658972       -3.8961883582       -2.0343507763
 C        -5.6396037828        3.3474554358       -1.4526304294
 C        -3.8550591967        1.7667872044       -0.5087283208
 H        -4.1029850108        3.4526338364        2.1129968080
 H        -5.0882466722        4.8368001285        1.7036461025
 H        -3.9476969208        4.4191781282        0.5433139594
 H        -4.8838242266        0.2865153099       -2.3142438077
 H        -6.3846517290        0.7024323685       -3.0741095226
 H        -6.5309212148       -1.4125931106       -0.9718243548
 H        -5.6219444764       -1.8549522423       -2.5442573572
 H       -11.0518157947       -3.1400911190       -0.9981046931
 H       -10.2673904851       -1.5096898619       -1.0282973766
 H       -10.3779421954       -3.2593440118        1.5120224220
 H       -11.8239578343       -2.3236255271        1.1168167104
 H       -10.3116395475        1.3848334568        5.3780107438
 H       -11.9435300651        0.6871981043        4.5252132964
 H       -10.1817752318        3.0330550670        3.5762595573
 H       -11.8897609926        3.3196433298        4.2964975490
 H        -9.2522221611        5.6436675995        1.1838280246
 H       -10.7721855333        5.8823155617        2.1074278192
 H       -10.3977113175        7.4201705140        0.3546260156
 H       -11.9478345001        6.6543399199        0.1003965908
 H       -12.9083311833        9.4011208713       -1.2754200864
 H       -12.7544880450        9.8147107901       -2.9436496483
 H       -10.7768663650       11.2488114190       -2.1560136685
 H       -11.3731182791       11.0315975389       -0.4608346786
 H       -15.5655465041       12.8022081375        1.5393121152
 H       -16.4530021547       11.1082283741        1.2502262493
 H       -16.4121136117       12.5332243427        0.2087319111
 H       -13.4266525984       13.6221244840        1.3547506401
 H       -11.6963275193       13.3883915479        0.5155103365
 H       -12.4862843821       12.0175005453        1.2688648185
 H       -15.2360516299       14.0440153772       -0.5206317041
 H       -14.8584500010       13.3327734766       -2.0775884684
 H       -13.7968430837       14.7575806847       -1.6082888172
 H        -9.6727664472        7.3155106775       -3.8108287325
 H       -11.0799142638        7.2682189237       -4.6977669114
 H       -10.4542081755        5.6882804428       -3.8586442235
 H       -13.1339797311        7.3965450237       -1.4160606683
 H       -13.0671396622        5.6703064577       -1.9912423665
 H       -13.5451059145        7.0267646614       -3.1209330417
 H       -11.6491823585        3.3155024500       -0.8916962319
 H       -13.2901962343        2.6732186170       -0.4544215111
 H       -11.8483315397        1.6854476352       -0.3306641902
 H       -14.0240261977        3.9470592424        1.4237520252
 H       -12.9791566541        5.3499494210        1.4056714299
 H       -13.1207292446        4.3801341536        2.8172093973
 H       -11.5080842703       -2.5301925219        3.5681572779
 H       -11.8422760947       -1.0920663884        4.1768049159
 H       -10.6874319725       -1.9880734403        4.9248851030
 H        -7.9488164410       -1.3174331751        2.6758879555
 H        -8.5135925535       -2.8194500623        3.3302481806
 H        -8.1020784128       -1.3185853675        4.3886864831
 H        -9.8233475230       -4.4217131446       -2.7309139250
 H        -8.5390823973       -4.0317390990       -3.9723700587
 H        -9.7190838412       -2.8114808572       -3.7821037692
 H        -6.0053530661       -3.6617290124       -1.2369056533
 H        -6.2665554868       -3.7566650363       -2.9641355491
 H        -6.9393660753       -5.0130377392       -2.0239263119
 H        -5.7448249502        4.3938050014       -1.0814513907
 H        -6.6460663591        3.2297273418       -1.9959873703
 H        -4.8617042958        3.4345775934       -2.3285631206
 H        -3.5779484122        1.3700327081       -1.5073983381
 H        -3.8108502612        0.9221477769        0.1369338503
 H        -3.1177479703        2.4335183097       -0.1993266468
 Na       -8.6224349390        1.4742325484        1.0878550808
