117

 C        -4.5509005106        4.0024838265        1.2879470229
 C        -5.4816926534        2.7360257109        0.9532356319
 O        -6.4676021276        2.5477796905        1.5939359380
 C        -5.2555772385        2.1112408664       -0.5409509027
 C        -6.4123439202        1.1112396379       -1.0535427896
 O        -7.4461151496        1.2057745848       -0.5097764180
 C        -5.9897106694        0.2287796297       -2.1080956299
 C        -6.2887064645       -1.2310571455       -1.9032076504
 C        -7.7648218945       -1.5733503919       -2.2855889804
 O        -8.4684524300       -0.7239909488       -2.8153245926
 C        -8.1960950850       -3.1010469812       -1.9812403740
 C        -8.8338768408       -2.9869611507       -0.5470749136
 O        -8.2343607482       -3.1688288990        0.5502611539
 C       -10.2787087671       -2.6003855132       -0.4965121273
 C       -10.8022779225       -2.4983139221        0.9293517947
 C       -10.0675646267       -1.2206095034        1.5778591748
 O        -9.5678561636       -0.4053495450        0.8743892280
 C       -10.0034127860       -1.1017571892        3.2517459290
 C        -9.7908379673        0.5070957716        3.7859506134
 O        -8.8219843456        1.0128620073        3.2849604943
 C       -10.8513896127        1.2321104387        4.3588143551
 C       -11.2212133128        2.5545585055        3.5878121194
 C       -11.9184521051        2.2193806357        2.1731143289
 O       -12.4283220459        1.1135024998        2.0472044154
 C       -11.9092027105        3.3868679058        1.1556567169
 C       -10.4922738857        4.0348997748        0.9326746334
 O        -9.6172442060        3.4124390369        0.3088232301
 C       -10.3006470753        5.6663051315        1.0901992449
 C       -11.0743427794        6.5179893990        0.0743109688
 C       -10.6870239769        6.1183789946       -1.3711120450
 O       -10.2070201021        5.1208256991       -1.7907169634
 C       -11.3382402798        7.1323349579       -2.4120250881
 C       -11.0637356975        8.6356106394       -2.2365241503
 O        -9.9525901821        9.0759173088       -2.2780641117
 C       -12.2857365905        9.6181408235       -2.0273860082
 C       -11.7227319576       10.9913554757       -1.5624258322
 C       -12.7865629287       12.0212630017       -1.8566840476
 O       -13.0185315085       12.2440184602       -2.9981125757
 C       -13.5404561943       12.5730375479       -0.6789171703
 C       -14.3921013422       11.5177205826       -0.0505467020
 O       -14.0511730381       10.3415679519        0.1775743009
 C       -15.4813824840       12.1738941239        0.7788708957
 C       -12.7757971718       13.0447878524        0.6385477813
 C       -14.2879627594       13.8779174868       -1.1005263451
 C       -10.8235975164        6.8716902593       -3.8131869006
 C       -12.8665443054        6.7304540106       -2.3233808962
 C       -12.4634886936        2.8809525836       -0.1350741698
 C       -13.0105731658        4.4705034572        1.7528893699
 C       -11.1649501221       -1.9419471902        3.9754006205
 C        -8.5923516310       -1.8252686349        3.6295352676
 C        -9.1871040977       -3.8097105759       -2.8929882271
 C        -6.9702883149       -4.0394163494       -2.0180481773
 C        -5.5694182684        3.3138152821       -1.5575297533
 C        -3.7094239335        1.7423996363       -0.6997433391
 H        -3.5443198784        3.6721861197        1.4719418225
 H        -4.8487376465        4.7192865921        2.1166971913
 H        -4.5932782845        4.7213172916        0.3963914930
 H        -4.9941791026        0.3302363689       -2.3362105000
 H        -6.6571204543        0.4577123741       -2.9702776678
 H        -6.3304355774       -1.4663349774       -0.8379734997
 H        -5.5954149054       -1.7183445387       -2.5404411489
 H       -10.8316633090       -3.4090099889       -1.0097862322
 H       -10.3941120821       -1.6653128730       -1.0347476799
 H       -10.6601317736       -3.2920558451        1.5370877058
 H       -11.8755010723       -2.1933027039        0.9813758924
 H       -10.3951524120        1.6818886263        5.2931510827
 H       -11.8231916557        0.6458413816        4.4822328275
 H       -10.2279868828        3.2012125818        3.5485348247
 H       -11.9293988697        3.0995176609        4.2667631788
 H        -9.1814508358        5.8852873188        0.8902771812
 H       -10.4700019710        5.9816055982        2.1701170721
 H       -10.8424435656        7.6458254734        0.2719477177
 H       -12.1963226054        6.5448069902        0.0319750599
 H       -12.9790121996        9.3058639284       -1.2133549138
 H       -12.9568727144        9.7361059058       -2.9464447263
 H       -10.7805681467       11.1444067085       -2.1981888142
 H       -11.5286382612       10.9223570451       -0.5577514923
 H       -15.0846505225       12.9281892263        1.4244202101
 H       -16.1556898013       11.4491278742        1.1153427020
 H       -15.9675805956       12.8398748387        0.0686420452
 H       -13.1565390298       14.0186246014        1.0197779270
 H       -11.6827745660       12.8709772644        0.5810759609
 H       -13.0438164430       12.2659663374        1.2993774250
 H       -15.2033131572       14.0058730995       -0.6208254831
 H       -14.4086002181       13.8381753575       -2.2168456881
 H       -13.6103314215       14.8046984428       -0.9317393376
 H        -9.6627792033        6.7051830465       -3.7898592996
 H       -10.8984157446        7.6914728472       -4.5789020198
 H       -11.1685926148        5.8982113988       -4.0620919269
 H       -13.3519759447        7.1194027982       -1.4330285289
 H       -12.9846023961        5.7081740973       -2.4409093131
 H       -13.2221557954        7.3304694010       -3.1939799918
 H       -11.9535053790        3.3986339842       -0.9462415820
 H       -13.5232235586        3.1734796382       -0.1112987520
 H       -12.3825263980        1.8361851205       -0.3317955171
 H       -14.0226093374        4.2179940511        1.3882810072
 H       -12.7921014472        5.4909841910        1.4824491472
 H       -13.1249479384        4.4873527605        2.8267637661
 H       -11.6602701250       -2.6936731575        3.4252204291
 H       -12.0939590059       -1.3488961306        4.3539151188
 H       -10.8407854596       -2.3548530927        4.8350967884
 H        -8.0154840446       -1.7526642197        2.6778067208
 H        -8.7599943599       -2.9432313528        3.7025123720
 H        -8.0209254144       -1.2614550907        4.3265689190
 H        -9.2398216710       -4.7523766373       -2.3677591172
 H        -8.7591911671       -3.9240135034       -3.8372600273
 H       -10.1258704386       -3.3186109977       -3.1162471027
 H        -6.3486410515       -4.0718362492       -1.0681922225
 H        -6.2632634451       -3.8819823742       -2.8542195485
 H        -7.2973611602       -5.1264406367       -2.1663222423
 H        -5.5906273311        4.3016816028       -1.0715649990
 H        -6.4753269985        3.4042265954       -2.2947947668
 H        -4.6937866045        3.3626565014       -2.2735863309
 H        -3.4035502550        1.6339690073       -1.8019522343
 H        -3.4061488975        0.8041312822       -0.2424038539
 H        -3.0928878682        2.5316957339       -0.2246282572
 Na       -8.6438250375        1.5026674004        1.1570893302
