117

 C        -4.4986329757        3.9108449891        1.3749137331
 C        -5.4559886573        2.8376773419        0.7635262913
 O        -6.3038070018        2.4586660009        1.5932861792
 C        -5.2064583128        2.2882270398       -0.6365552434
 C        -6.2950201464        1.2038560893       -0.9546801535
 O        -7.4268300454        1.1741615536       -0.5582357874
 C        -5.9417099404        0.1493253425       -2.2177951916
 C        -6.2544546547       -1.3041284231       -1.8343398846
 C        -7.7615106173       -1.7616523518       -2.0705690718
 O        -8.4186978059       -0.9589344802       -2.6514427946
 C        -8.2329976922       -3.2809114038       -1.7904127290
 C        -8.8707199355       -3.0687836631       -0.3858450948
 O        -8.1561021010       -3.1177104982        0.5884815595
 C       -10.3864900432       -2.7366673296       -0.3868529596
 C       -10.7974526954       -2.4745608572        1.0096985809
 C       -10.1496449054       -1.1956668487        1.6242166051
 O        -9.7608221841       -0.3936968239        0.8678713368
 C        -9.8968695424       -1.1403421929        3.2280564222
 C        -9.7753693712        0.3902644581        3.6240017560
 O        -8.7235433799        0.9360740103        3.4733373053
 C       -11.0134481794        1.2977841347        4.4309537475
 C       -11.2016989356        2.5423528664        3.5020322225
 C       -11.8992796343        2.2396297145        2.0875844008
 O       -12.3903171703        1.1772830997        1.7933775503
 C       -12.0050406062        3.5435633277        1.1236994801
 C       -10.6290925893        4.1779685124        0.8638288840
 O        -9.7081888875        3.4689709721        0.4626684163
 C       -10.2457547509        5.6038533798        1.0915907700
 C       -11.0477424570        6.5033690248        0.1193227865
 C       -10.7969015066        6.1685992262       -1.3647753728
 O       -10.2568052545        5.1272322479       -1.6733225680
 C       -11.4180185228        7.0671200580       -2.5852474147
 C       -11.0281635758        8.5637207711       -2.1823038853
 O        -9.9446042787        9.0476850311       -2.4166943869
 C       -12.2001052209        9.4926369462       -2.0070903295
 C       -11.7067801649       10.8774580206       -1.5363585841
 C       -12.7002095173       12.0908680286       -1.9401938152
 O       -13.0845486848       12.3020259447       -3.0788829979
 C       -13.3929299311       12.7987110216       -0.7041245322
 C       -14.4126842248       11.6125790645       -0.0257879211
 O       -14.0579623330       10.4737123952        0.0723205030
 C       -15.6119446463       12.0677562247        0.9043741042
 C       -12.3659894837       13.1757987257        0.4489299495
 C       -14.1479828801       14.0787518644       -1.2813471820
 C       -10.9526067516        6.7942438433       -4.0153590999
 C       -12.9321246570        6.7797618435       -2.5399423247
 C       -12.6961895618        3.0277162496       -0.2288431685
 C       -12.9196742711        4.4868783361        1.9365963308
 C       -11.1229398171       -1.9667722807        3.9123566615
 C        -8.6851771699       -1.9240902050        3.6965601355
 C        -9.2943540030       -3.7868896386       -2.7654812699
 C        -7.0308511815       -4.1464876465       -1.7888740690
 C        -5.4059049765        3.4031729450       -1.7044246889
 C        -3.7817576938        1.6989702950       -0.8199583222
 H        -3.4289243454        3.7920785663        1.0332090731
 H        -4.5101208238        4.0169648467        2.4720328998
 H        -4.9159531008        4.8851444245        1.0983265343
 H        -4.8955089986        0.1381465819       -2.8347807750
 H        -6.8303793799        0.3816450573       -2.8499132094
 H        -6.1294296212       -1.4073645272       -0.7185724599
 H        -5.6265744823       -1.8601785274       -2.4907579364
 H       -10.8741838639       -3.6318683217       -0.6923761601
 H       -10.6999643915       -1.8940533265       -1.0695589999
 H       -10.6360261553       -3.3020780268        1.6991233231
 H       -11.9048219935       -2.1468392871        1.1091034489
 H       -10.5310131965        1.7479252565        5.3192160895
 H       -11.9954884850        0.8825268758        4.5899655294
 H       -10.2685461598        3.0487332118        3.3417826716
 H       -11.8149242792        3.2638562995        4.0421283739
 H        -9.0974975176        5.6605938825        1.3034348521
 H       -10.6604694367        5.6826932235        2.0497780657
 H       -10.9998254878        7.5890710976        0.3087934111
 H       -12.0928835394        6.2893667461        0.1997956975
 H       -13.0825561074        9.0123263313       -1.4353355305
 H       -12.5336071963        9.5676696216       -3.0492817050
 H       -10.7158749161       10.8956560662       -2.0540428319
 H       -11.6374751130       10.8410824850       -0.4466907922
 H       -15.3163987404       12.9848095633        1.2996773087
 H       -15.8631635352       11.2125222857        1.4888444975
 H       -16.5175362796       12.4466035297        0.2664578116
 H       -12.3680822314       14.2257286810        0.6789828284
 H       -11.4721773388       12.7768156740        0.1578702444
 H       -12.6844365232       12.5791771888        1.3210925818
 H       -15.0786010198       14.3084591338       -0.7201467471
 H       -14.2993980299       14.0307053543       -2.3223292937
 H       -13.5126555514       14.8391753231       -1.1574059397
 H        -9.9402183348        6.3107410585       -4.0883924352
 H       -10.8162389013        7.7207668585       -4.5890781306
 H       -11.5397364763        5.9983820977       -4.4716725062
 H       -13.4413207309        6.8187503200       -1.5828515868
 H       -12.9560692227        5.7744955214       -2.8786677681
 H       -13.3817214771        7.5269261904       -3.2408179106
 H       -12.2831326432        3.5214179433       -1.1152276542
 H       -13.7788648654        3.1305877907       -0.1919562952
 H       -12.3819456260        1.9839326464       -0.3119811978
 H       -13.9623253364        4.2314434814        1.8337812498
 H       -12.7671582373        5.5272059733        1.5845336300
 H       -12.7121246121        4.5109292560        2.9943622632
 H       -11.4654661096       -2.8427856052        3.2852924476
 H       -12.0652738204       -1.4093006688        3.9164901872
 H       -11.0848036318       -2.3743324921        5.0310461344
 H        -7.9233958153       -2.0762305462        2.9148442282
 H        -9.0727527863       -2.9233845870        3.8986729893
 H        -8.2357151690       -1.3406784284        4.5099804864
 H        -9.3995211936       -4.7567404045       -2.5056094816
 H        -9.1247325149       -3.6845465369       -3.8369539162
 H       -10.1288164638       -3.1788743305       -2.6617969128
 H        -6.4578823309       -4.0196503543       -0.8995700359
 H        -6.3628249981       -4.1266943635       -2.7175810319
 H        -7.3235050438       -5.1903607926       -1.7246457523
 H        -5.5671739857        4.4558541164       -1.2940108202
 H        -6.2868072522        3.2406646610       -2.2301677754
 H        -4.7089671081        3.3992144637       -2.4921083770
 H        -3.6452574996        1.6412887132       -1.8885797781
 H        -3.6508840512        0.6177109569       -0.4389555563
 H        -2.9203199839        2.3197090131       -0.3715102920
 Na       -8.6411508148        1.6931511521        1.2975002980
