117

 C        -4.2688381838        3.7555456233        1.0523172916
 C        -5.3599052017        2.7147598116        0.6480050237
 O        -6.2192633559        2.2627795328        1.4188236581
 C        -5.2084347327        2.1615571222       -0.7923944241
 C        -6.2659263869        1.0876498365       -1.1483847065
 O        -7.3529114245        1.0825289884       -0.6421545383
 C        -5.9135597367       -0.0135911175       -2.0956320864
 C        -6.2652230485       -1.4242641875       -1.5073385670
 C        -7.7095591145       -1.8738123682       -1.9042623750
 O        -8.4692396258       -1.0982724081       -2.4504322936
 C        -8.1418731512       -3.3639364804       -1.5829302563
 C        -8.8916029729       -3.1127314274       -0.1185313423
 O        -8.1655099129       -3.0446535497        0.8808569179
 C       -10.4619139753       -2.9588716218       -0.0480183522
 C       -10.9630132787       -2.6052485163        1.3347823937
 C       -10.3414737628       -1.2071776511        1.8372089396
 O        -9.9532297612       -0.3271875460        1.2211736691
 C       -10.0691557800       -1.2070503270        3.4958382694
 C        -9.8418646039        0.2790642814        3.8197320575
 O        -8.7661305416        0.8052830805        3.7103993881
 C       -11.1439753317        1.0654534604        3.9076121359
 C       -11.1395356761        2.5002552103        3.2748875527
 C       -11.9722075377        2.4525880757        1.8871040369
 O       -12.1082826172        1.3580112117        1.3828390017
 C       -12.3242620762        3.8089788811        1.2152086682
 C       -10.8069224079        4.4352150766        0.9675917257
 O        -9.8227388487        3.6589301168        0.9187197114
 C       -10.4806063649        5.9502463204        0.8754483245
 C       -11.1494713202        6.7277723589       -0.1787014982
 C       -10.9858197155        6.0633845707       -1.6380304561
 O       -10.3346113452        5.0621645226       -1.9015696889
 C       -11.5846064221        6.9548754848       -2.7908322689
 C       -11.0687450030        8.4740297430       -2.6149934278
 O        -9.8975484200        8.6542695897       -2.4331606627
 C       -12.1518956434        9.6254335772       -2.3557415567
 C       -11.6257280764       10.9180663252       -1.6671633032
 C       -12.6297988847       12.0285530708       -1.9652228024
 O       -13.1303060665       12.1596221991       -3.0553664418
 C       -13.1518169825       13.0090981122       -0.7766715607
 C       -14.0937536160       11.9831597815       -0.0037631243
 O       -14.1329564502       10.7617474487       -0.1280215934
 C       -15.2077505922       12.7036752970        0.6817956166
 C       -11.9768998926       13.6641969980        0.1458777477
 C       -13.9766839772       14.1390876653       -1.1871753658
 C       -10.9969528878        6.3616138603       -4.1545893089
 C       -13.1020135759        6.7552683912       -2.9002814485
 C       -13.0672832755        3.5485316529       -0.1816061126
 C       -13.1845790566        4.7201006089        2.2409529870
 C       -11.1430738669       -1.8852043556        4.2765349045
 C        -8.7668690946       -2.1173476642        3.6651682143
 C        -9.0955420333       -4.0476269637       -2.6356925680
 C        -7.1661172186       -4.5225128545       -1.2644756685
 C        -5.2953750486        3.3633328973       -1.7839008309
 C        -3.6832058395        1.6886032940       -0.9986446590
 H        -4.3093590110        4.7113089127        0.5445119156
 H        -3.2837279962        3.2869905821        0.9322646514
 H        -4.2987340892        3.8935182445        2.1352926731
 H        -4.9948161811        0.0309185686       -2.7683451827
 H        -6.7692550497        0.1750958849       -2.6378641451
 H        -6.2809743147       -1.1912209673       -0.4287628745
 H        -5.6174508985       -2.1413342868       -1.8906717715
 H       -11.0066423288       -3.8934330938       -0.3182959062
 H       -10.8157804446       -2.2734853733       -0.8186176209
 H       -10.7383892034       -3.2990743375        2.0279416735
 H       -12.0326983972       -2.4754785373        1.3623324301
 H       -11.2745291914        1.3345213504        5.0029254334
 H       -12.0945691879        0.5550011847        3.4894457998
 H       -10.1465816025        3.1335372932        3.3985586235
 H       -11.7090957409        3.1908022249        3.9918960898
 H        -9.2799708749        5.8591094153        0.8438929216
 H       -10.7389103983        6.3237835182        1.8823515751
 H       -10.8219617823        7.8425803387       -0.2458845590
 H       -12.2471265749        6.7357003350        0.0314087505
 H       -12.8883319877        9.2415485685       -1.6109257769
 H       -12.6645738618        9.8766513790       -3.2970721626
 H       -10.6504438445       11.2832573304       -2.1006495229
 H       -11.6031165307       10.7242538900       -0.6717170787
 H       -15.4918513087       13.6090178508        0.2098403377
 H       -14.8759271068       12.8848393812        1.6862609346
 H       -16.0541264303       11.9017710986        0.7465474564
 H       -12.5342415355       14.4009165951        0.8213795560
 H       -11.3218573216       14.1939976055       -0.5588509641
 H       -11.5451383969       12.8911654709        0.7978054199
 H       -13.9052010389       15.0258285999       -0.4537893400
 H       -15.0582787556       13.8032297963       -1.4655659473
 H       -13.5803518981       14.5290640425       -2.1176362488
 H       -10.0468498560        5.8440852176       -3.9297355880
 H       -10.9648810071        6.9997842982       -5.0826781533
 H       -11.4409110287        5.4415161217       -4.3795017594
 H       -13.6846842786        7.2930152171       -2.1211935825
 H       -13.3172988077        5.7463086878       -2.9015598587
 H       -13.3089376712        7.4062326462       -3.7547518148
 H       -13.6824845952        4.4120270029       -0.4595855931
 H       -13.8221051004        2.7879685185       -0.0000835242
 H       -12.3539108386        3.2840812921       -0.9453465141
 H       -13.6141308022        4.0861463684        3.0254281807
 H       -14.0135842660        5.2312799072        1.7245271638
 H       -12.5541063013        5.4263610122        2.7698559869
 H       -10.9006327832       -2.6753187755        4.8961338380
 H       -12.0166345630       -2.1265652945        3.7425986691
 H       -11.4766367563       -1.0914898560        4.9500538759
 H        -7.8106354889       -1.6348108279        3.5039403845
 H        -8.8661083800       -2.9576990919        2.9528732236
 H        -8.8509825122       -2.4792685901        4.6491583598
 H        -9.6326202861       -4.8558447710       -2.1505806271
 H        -8.5469288962       -4.5771401238       -3.4830532605
 H        -9.7390798872       -3.2404903696       -3.1278349850
 H        -6.5682404969       -4.2061967263       -0.4314189826
 H        -6.5105836781       -4.8952337856       -2.0905203867
 H        -7.5544101601       -5.4348662719       -0.8333571951
 H        -4.2577798165        3.9542983727       -1.7151099545
 H        -6.1898252753        4.0363611180       -1.6241381592
 H        -5.4418736767        2.9398025957       -2.8427283671
 H        -3.5528007566        1.2978105127       -1.9644084690
 H        -3.4035546132        1.0044705971       -0.2434290437
 H        -2.9446401653        2.4595384840       -1.0259255335
 Na       -8.3230445427        1.5887142352        1.5105064463
