117

 C        -3.5760906520        3.0974049584        8.0690775320
 C        -3.9356875022        4.6289655454        8.1136124137
 O        -3.0398600297        5.4791475963        7.9287838326
 C        -5.4390611287        5.0051163960        8.2999130854
 C        -6.1832196768        4.4246087674        7.1131527921
 O        -6.6363442688        3.2717070669        7.1411362656
 C        -6.2280243621        5.2079192354        5.7750336720
 C        -6.5493235116        4.3619410868        4.5837349379
 C        -6.7130384147        5.2886630020        3.3267334496
 O        -7.4184142583        6.2693275101        3.3603753698
 C        -5.7477519414        5.1457431097        2.0135691860
 C        -5.6707249280        3.5819236875        1.6057771675
 O        -4.7086306858        2.9027627452        1.6924391607
 C        -7.0085597409        3.0201187716        1.0937653008
 C        -6.8316181643        2.2215486555       -0.2040529513
 C        -7.9807328190        1.3394210116       -0.6722083450
 O        -8.4109793047        1.5385581733       -1.8109708144
 C        -8.4710657339        0.1101445605        0.1058575465
 C        -9.7261217437        0.6049951543        0.9905091004
 O        -9.4942136718        1.2117912489        2.0028007022
 C       -11.2166625590        0.5478818151        0.4998232998
 C       -11.9520957877        1.6171318029        1.3104023116
 C       -11.7976199693        2.9611307846        0.4649836904
 O       -10.7567984043        3.2341623322       -0.0721086572
 C       -13.0758269620        3.8325719954        0.2618455213
 C       -13.6289903148        3.4999335070       -1.1665000236
 O       -13.0001197448        3.0360540908       -2.0668318006
 C       -15.0878614957        3.6998130637       -1.4291164505
 C       -15.4870482560        3.8309035752       -2.9499461095
 C       -15.2447498491        5.2426231913       -3.4982757468
 O       -14.7358778204        6.0789458918       -2.7473269727
 C       -15.3910630536        5.5318220176       -4.9959782517
 C       -13.9665132190        5.1053903175       -5.4970273124
 O       -13.9434379064        4.3020089396       -6.4068084621
 C       -12.7854183068        6.0909843167       -5.0568277694
 C       -11.2865080978        5.6342843468       -5.4419368141
 C       -10.8858122935        4.3368850833       -4.8105831741
 O       -11.0114904363        4.2106520388       -3.6428093065
 C       -10.2881604072        3.1565789083       -5.6742526109
 C       -11.1665970960        1.9986914407       -5.3938436969
 O       -10.9572899333        1.4435229451       -4.2662210259
 C       -12.4560709755        1.5292831116       -6.1082886088
 C       -10.1333676027        3.5953519555       -7.1295688109
 C        -8.8780297339        2.9829177795       -5.0277780746
 C       -16.4471065747        4.7024364595       -5.7641342814
 C       -15.7319893549        7.0343740360       -5.2005355950
 C       -14.2055149153        3.5368221591        1.2921742120
 C       -12.6433427262        5.4048814533        0.2899603208
 C        -8.9230337492       -0.9782969354       -0.9055647627
 C        -7.5406541671       -0.5260333023        1.1198789801
 C        -6.1542055139        6.1283085692        0.8521031641
 C        -4.3629581844        5.5745349226        2.5678593044
 C        -5.8324223361        4.2175564088        9.6594912443
 C        -5.5752210099        6.5311391673        8.4588929208
 H        -2.5111380428        3.0139752426        8.0514095600
 H        -3.9270560951        2.8835451869        7.0337964598
 H        -4.1195516575        2.4298605864        8.7012440378
 H        -5.2785084668        5.7743788410        5.6619498135
 H        -7.0109413205        5.9517614933        5.8498925235
 H        -7.5565133811        3.8927882379        4.8655138850
 H        -5.6379045684        3.6557371550        4.4365317674
 H        -7.8017656954        3.8293912414        1.0874032612
 H        -7.3252018177        2.3724912350        1.9499922029
 H        -5.9461011532        1.5445048550       -0.1316447675
 H        -6.6154979714        2.9382187147       -0.9668009014
 H       -11.5410110838       -0.4579052724        0.7487755751
 H       -11.2809183185        0.7138091937       -0.5399192050
 H       -11.5009393785        1.6954112849        2.3013239881
 H       -12.9820470163        1.2298430255        1.4406992054
 H       -15.5454147463        4.3741932125       -0.7631760134
 H       -15.4373178677        2.7711332527       -1.0962830166
 H       -16.5354632895        3.5960152940       -3.0812246368
 H       -14.9411063955        3.1639813031       -3.5936365939
 H       -13.0075051448        6.4543493957       -3.9979582576
 H       -12.8979173455        6.8886454790       -5.8474678478
 H       -10.6706806297        6.4349900738       -4.8943675186
 H       -11.2910903757        5.7808811912       -6.4858055040
 H       -12.3634252796        0.5015779828       -6.4847423957
 H       -12.6513616542        2.1321115163       -6.9249060584
 H       -13.3261186876        1.6162381125       -5.4193566492
 H        -9.8475875919        4.6813813960       -7.1804175838
 H       -11.1760648974        3.5523177942       -7.6349760071
 H        -9.4294625839        3.0238085664       -7.7218428025
 H        -9.0687379186        2.8559415400       -3.9155917935
 H        -8.1880481819        3.8454967221       -5.2039361483
 H        -8.3670612031        2.1174301666       -5.3702753578
 H       -16.4356394236        3.6851066554       -5.4970352893
 H       -16.2266086596        4.7231578407       -6.7988637909
 H       -17.4537012533        5.0810238196       -5.6142866698
 H       -15.8794142267        7.0692774603       -6.2975129423
 H       -14.7302607228        7.5816774756       -5.0722677616
 H       -16.6316980147        7.4232426024       -4.7381801876
 H       -13.7734183985        3.4106257038        2.2561342969
 H       -14.7784333782        2.6698291154        1.0601211307
 H       -14.8817411610        4.3536324235        1.2342173485
 H       -12.4441312837        5.6744715332        1.3118374910
 H       -13.3675208083        6.0167540561       -0.2535173617
 H       -11.6739603343        5.5211394925       -0.1588375930
 H        -9.6105731646       -1.6163120044       -0.5033971094
 H        -7.9126997845       -1.3571114648       -1.2211575173
 H        -9.4660828822       -0.4685695894       -1.6855920340
 H        -6.9730813912        0.1462764997        1.7541749571
 H        -6.8646220703       -1.2454383729        0.7306644566
 H        -8.2711968611       -1.1068871541        1.8159832766
 H        -6.4028236091        7.0955932203        1.2216506301
 H        -7.0000976254        5.7271095768        0.2086484074
 H        -5.2705625849        6.2915527120        0.2721746532
 H        -3.8556604132        6.1150388770        1.8260305794
 H        -3.7479518256        4.6880955537        2.7557602593
 H        -4.4626359098        6.2505077419        3.3566062323
 H        -5.6974166067        3.1485338800        9.6353610701
 H        -6.9078480825        4.4797694444        9.8358160860
 H        -5.2909201847        4.5846797274       10.4950024871
 H        -5.7887855062        6.8859574316        9.4301986551
 H        -6.2997812708        6.9457340229        7.7887599600
 H        -4.5745948750        6.8348690880        8.1303334792
 Na      -10.5841247662        2.2572007681       -2.1649050201
