117

 C        -4.3986454569        2.4211038826        1.2939293710
 C        -5.7218081733        2.2911250175        0.5754147229
 O        -6.7097855558        2.6560857805        1.1817396662
 C        -5.8552907608        1.7659899353       -0.9650729048
 C        -6.5683064536        0.3239446104       -0.7099274435
 O        -7.3144629652        0.2121360704        0.2166514755
 C        -6.1533714310       -0.9364289519       -1.4450539133
 C        -6.3730605417       -2.3571449958       -0.8556255369
 C        -7.5618130906       -3.0383173358       -1.4321866293
 O        -8.1939082856       -2.5326177977       -2.3488611055
 C        -8.1859898522       -4.3403935535       -0.7003973378
 C        -8.7581251750       -3.7688266251        0.6301959027
 O        -8.1486034708       -3.8843288377        1.6599694718
 C       -10.1360540560       -3.1018414216        0.6707345138
 C       -10.5818308249       -2.5302110076        2.0020506245
 C       -10.3005668164       -0.9656121286        2.2983317754
 O       -10.0635790100       -0.1602165281        1.3893945984
 C       -10.1373039068       -0.5708641341        3.6837321007
 C       -10.4449866742        1.0693607053        3.8511706945
 O        -9.5860462741        1.9455087401        3.9155170056
 C       -11.8787457712        1.4602205883        4.2914510472
 C       -12.2073567002        2.8801300331        3.8460148936
 C       -11.9171182458        2.7936094355        2.2601495012
 O       -11.4870741043        1.7981817106        1.7525310969
 C       -12.1162670503        4.0889421319        1.3309134646
 C       -10.6914942442        4.3927256895        0.5639747314
 O       -10.0231939931        3.5753346105        0.0654780776
 C       -10.4062315370        5.9341047537        0.3602236707
 C       -11.4476328757        6.6095571198       -0.5141810796
 C       -11.4258083851        6.0423720330       -2.0535017868
 O       -10.9865326007        4.9804006345       -2.2639705808
 C       -11.7519603980        6.9845997922       -3.2023155660
 C       -11.3860037223        8.4154928843       -2.7744172765
 O       -10.1933608466        8.5302710591       -2.5212770252
 C       -12.3550792194        9.6392830212       -2.8215118663
 C       -11.6342864751       10.9024255683       -2.3876332469
 C       -12.4521578333       12.1896262983       -2.7412984513
 O       -13.1627597723       12.1911036771       -3.6877658680
 C       -12.2453609280       13.4306161936       -1.8974935897
 C       -12.9633048798       13.2283860305       -0.4793659387
 O       -13.6215662782       12.2191365532       -0.2908461593
 C       -12.4057613898       14.1009658688        0.6267277205
 C       -10.7134730724       13.6609347166       -1.6046751719
 C       -12.8046540012       14.6427874257       -2.6247857922
 C       -11.0345838072        6.3854366726       -4.3832523800
 C       -13.3242856057        6.7386025645       -3.3255356276
 C       -12.9267962620        3.4117821665        0.0631022403
 C       -12.6787230193        5.1850239022        2.2135167132
 C       -10.9142250706       -1.4168325511        4.7569282852
 C        -8.5446035919       -0.7443615503        4.0394259226
 C        -9.2329329833       -4.8608634943       -1.6920719712
 C        -6.9608500041       -5.2482143076       -0.2230939569
 C        -6.8988674639        2.7047895202       -1.7692992461
 C        -4.4926242938        1.6242419105       -1.5675116563
 H        -4.5061279291        3.3462482899        1.9313837016
 H        -3.5148241214        2.5657440632        0.6457589561
 H        -4.2328897645        1.6259563856        2.0354162079
 H        -5.3334752967       -0.6523015754       -1.9409453391
 H        -6.8839993580       -0.8370104136       -2.2475841607
 H        -6.4035199896       -2.5274114969        0.2662330941
 H        -5.4741436712       -2.9865876552       -1.0219344702
 H       -10.8854720566       -3.8093812993        0.3209381461
 H       -10.1495036311       -2.3063560615       -0.1282442828
 H       -10.0352149322       -3.1096763021        2.8048767255
 H       -11.5630461286       -2.6264715501        2.0989632257
 H       -11.7140165746        1.2300028963        5.3464087192
 H       -12.6120637014        0.8145371025        4.0095582204
 H       -11.3646342481        3.4468855999        3.9937708436
 H       -13.0425226526        3.2573859360        4.3509560414
 H        -9.4778325523        5.9610996473       -0.1137107324
 H       -10.1362127931        6.5422303874        1.2763806912
 H       -11.0739567701        7.5691308389       -0.4604168488
 H       -12.4246211223        6.7530573581       -0.1716001719
 H       -13.1353864890        9.3535423974       -2.0115009545
 H       -12.9358769326        9.6903091438       -3.6824824811
 H       -10.5924133538       10.9904473999       -2.8267051385
 H       -11.5183057742       10.9146177263       -1.2715328094
 H       -12.6704570344       15.1541607704        0.3941328519
 H       -11.2913484133       13.8587717428        0.8268715410
 H       -12.9083531107       13.8177407474        1.5050919097
 H       -10.2517734670       13.3828830036       -0.6716172451
 H       -10.4708801543       14.6999228906       -1.6856826067
 H       -10.1309602224       13.0778225569       -2.3442868133
 H       -13.7229241632       14.4545899882       -2.9524493711
 H       -12.2343189810       14.9664759349       -3.4889875802
 H       -12.8187214698       15.5999943698       -2.0121446087
 H        -9.9846993464        6.1027957816       -4.1414825025
 H       -11.1015962103        7.0876573274       -5.2366662290
 H       -11.6983288174        5.6643682623       -4.9563979149
 H       -13.8814133131        7.0571116839       -2.4978954040
 H       -13.3877983062        5.6154293729       -3.3947026499
 H       -13.6544414126        7.1639398100       -4.2427866314
 H       -13.4646922699        4.2025412093       -0.4448197543
 H       -13.5697792016        2.5949323768        0.3383909706
 H       -12.2015059766        3.0517619577       -0.6753476977
 H       -13.7547097402        5.1076483764        2.2394261874
 H       -12.3669374401        6.2434407962        2.0420539577
 H       -12.4182661206        4.9603986271        3.2508218154
 H       -10.5269952544       -2.4076384134        4.8967934571
 H       -12.0996081914       -1.5370994847        4.5974879395
 H       -10.7012208158       -0.8626807756        5.6068257592
 H        -7.8748906851       -0.5099343886        3.1837918428
 H        -8.2027523723       -1.6822162685        4.4571002229
 H        -8.3082515333        0.1362553315        4.7697119604
 H        -9.9434658962       -5.5905762006       -1.3471967204
 H        -8.7149869264       -5.3698177196       -2.4646035362
 H        -9.6077353219       -4.0447084707       -2.1964499902
 H        -6.3112569433       -4.6966158418        0.5251638855
 H        -6.3612336403       -5.6236459457       -1.1030251348
 H        -7.3998682895       -6.1330299706        0.2724731817
 H        -6.7114989526        3.6250313489       -1.4793678676
 H        -7.8815472924        2.3994028072       -1.4167319460
 H        -6.7598408996        2.4480107587       -2.7972244583
 H        -4.5197594160        1.3520329126       -2.6127286080
 H        -3.7053814196        1.0388741214       -0.9634611626
 H        -4.1563037188        2.6642268283       -1.8105751622
 Na       -8.8898018461        2.1194646457        1.3465737451
