117

 C        -3.6241160371        3.2658669489        7.9507478441
 C        -3.8730265822        4.7775963835        8.0204691321
 O        -3.0590448718        5.6549735871        7.8466277589
 C        -5.3930532383        5.1925634481        8.2810075938
 C        -6.1188469472        4.4281699764        7.0416967108
 O        -6.4740523795        3.3098560535        6.9905221166
 C        -6.1735336154        5.3500743483        5.7373288327
 C        -6.6818786707        4.4956403038        4.5036377979
 C        -6.7040093150        5.3191062947        3.2621300206
 O        -7.5313857023        6.2311782077        3.2158149132
 C        -5.6576384513        5.0717182883        2.0263634731
 C        -5.7170433430        3.6166012240        1.5700701233
 O        -4.8178661880        2.7916490297        1.5406764530
 C        -7.1755144648        3.0566066095        1.0055132009
 C        -6.8529366622        2.1824630956       -0.1920194605
 C        -7.9279478708        1.2882849180       -0.7055346102
 O        -8.2764482342        1.4212067841       -1.8876956089
 C        -8.6251881856        0.0788173603        0.1745334587
 C        -9.7523504621        0.6843872797        1.0816366846
 O        -9.4947738738        1.2636140904        2.0988862434
 C       -11.2353275131        0.5594390553        0.6067197406
 C       -11.9922933260        1.6754819680        1.3237255732
 C       -11.8543079518        2.9416127375        0.5239261599
 O       -10.7614615778        3.2252515932        0.0918975936
 C       -13.0628275863        3.8653767946        0.2720103308
 C       -13.6823028884        3.4182427748       -1.2343179124
 O       -12.9266752854        2.7850793352       -1.9271453290
 C       -15.2137075871        3.7184894799       -1.4520012267
 C       -15.4249124913        3.7317076909       -2.9403338420
 C       -15.1810251296        5.2445336133       -3.3978961450
 O       -14.6684644479        6.0265694618       -2.6274798751
 C       -15.3415670192        5.5195858610       -4.9094595693
 C       -13.9458993736        5.1857805483       -5.5489774137
 O       -13.7838935274        4.1785018159       -6.2190689728
 C       -12.8422379436        6.0850917375       -5.0786996340
 C       -11.3739241625        5.6289708078       -5.5107443775
 C       -10.9502443187        4.3276834621       -4.7759560055
 O       -10.9804834270        4.1409121842       -3.5726634174
 C       -10.2573618988        3.2230669046       -5.6479232151
 C       -11.2269413611        1.9147330503       -5.3560235592
 O       -11.1217013362        1.3119058476       -4.2814805010
 C       -12.3841259867        1.4636275250       -6.2655342718
 C       -10.0591067595        3.5931769918       -7.1962486798
 C        -8.8597279922        2.8202368806       -4.9978265442
 C       -16.4432806704        4.6504350645       -5.5098111012
 C       -15.7151784252        7.0017429645       -5.1830226159
 C       -14.1112383271        3.6653416610        1.3830521704
 C       -12.7252442825        5.3171119963        0.2423173713
 C        -9.0479867271       -1.0082019468       -0.9535127768
 C        -7.4837024661       -0.4948685507        1.0714603266
 C        -6.1954562102        5.9605295305        0.9241085929
 C        -4.3411512114        5.5485032499        2.6208963336
 C        -5.8735887509        4.4125444645        9.5867351536
 C        -5.5379107456        6.6709643585        8.4799632682
 H        -2.5447784272        3.0549053360        7.8939146864
 H        -4.2040190996        2.8964368633        7.0825010493
 H        -4.0436173808        2.7936221260        8.7941181727
 H        -5.1447245701        5.7567803571        5.5744400016
 H        -6.8081058095        6.2061448784        5.9042836102
 H        -7.7218200171        4.2108675527        4.8529942267
 H        -5.9165714692        3.6754158421        4.4088229531
 H        -7.9462544287        3.8797660056        0.8457566065
 H        -7.6711117611        2.4469300775        1.8103057919
 H        -5.9982916954        1.5532639918        0.0293765481
 H        -6.5599209838        2.8896632035       -1.0086567705
 H       -11.6012694653       -0.4086415753        0.9376502820
 H       -11.2718294096        0.6329015241       -0.4832427510
 H       -11.6092412905        1.7757131565        2.3361552635
 H       -13.1012760470        1.2913321690        1.3848954290
 H       -15.3650514858        4.6208221665       -0.9631271756
 H       -15.8092345793        2.9799829891       -0.8500339815
 H       -16.4162867783        3.4229795198       -3.2852312913
 H       -14.7214280703        3.0709419019       -3.4424239138
 H       -12.9550962895        5.9720744330       -4.0006840358
 H       -13.0081886251        7.1049562844       -5.4393763028
 H       -10.7392913103        6.4104690086       -5.0535681980
 H       -11.3496956285        5.6636804814       -6.6057800989
 H       -12.2012330126        0.4582694971       -6.6396062972
 H       -12.5334828559        2.0824305021       -7.1535735029
 H       -13.2810721649        1.4472148648       -5.6127152201
 H       -10.0103068219        4.6736876343       -7.5391975487
 H       -10.9738555282        3.1872330475       -7.6550601739
 H        -9.2634756736        3.0133487045       -7.7064060101
 H        -9.0616774290        2.8170528298       -3.9669005259
 H        -8.1171491722        3.6338900719       -5.1819260453
 H        -8.4432092315        1.9046883311       -5.2323093295
 H       -16.3979072599        3.6061608417       -5.2372466941
 H       -16.2797441055        4.6645859335       -6.5573339818
 H       -17.5138616235        5.0109766999       -5.3471090115
 H       -15.8171787364        7.1181536000       -6.2917886231
 H       -14.9521316418        7.6418722014       -4.8579087588
 H       -16.7713728029        7.2146309298       -4.7428272031
 H       -13.6477991638        3.4459834789        2.3050719695
 H       -14.6897217422        2.8234941496        1.0509648104
 H       -14.8137176708        4.4345597965        1.4077776418
 H       -12.2516602301        5.5095712193        1.2570283243
 H       -13.6900384106        5.8714097022        0.0311016262
 H       -11.9520802328        5.6315907407       -0.4530936838
 H        -9.6227655898       -1.8019559820       -0.5097578997
 H        -8.0303082434       -1.2348267621       -1.3179714382
 H        -9.7358537197       -0.5861202096       -1.6609534431
 H        -6.8263197043        0.3446012483        1.4287443689
 H        -6.8145212896       -1.2546858574        0.5191623817
 H        -7.8069399368       -0.9914303950        1.9692020037
 H        -6.4037581383        6.9916093951        1.3012742950
 H        -7.0970906503        5.4758303872        0.5989049629
 H        -5.5171874400        6.0877947536        0.0838318895
 H        -3.6941313921        5.6209816956        1.7773373831
 H        -3.8794383373        4.8491004052        3.2723021835
 H        -4.4353557754        6.5413298596        2.9640364565
 H        -5.6497756238        3.3775638895        9.3772687745
 H        -6.9622666370        4.4999362055        9.7342967787
 H        -5.3798996115        4.6408826813       10.5382257843
 H        -5.3683460757        6.9877382874        9.4970900340
 H        -6.5978517563        6.7174454886        8.3259646710
 H        -4.9787604750        7.2784191984        7.8228905162
 Na      -10.4422535940        2.4031759064       -2.2250756332
