117

 C        -5.0503106309        2.4802813966        0.6767499091
 C        -6.4442680025        2.0914491197        0.4310320188
 O        -7.3757263378        2.1072812287        1.1907405041
 C        -6.5596404938        1.1235616915       -0.9664984492
 C        -6.8362707827       -0.3313244860       -0.3332551442
 O        -7.9747103453       -0.5324980987        0.1194660509
 C        -5.7638764464       -1.4000500985       -0.5572646503
 C        -6.0752505248       -2.8457449335       -0.0391503377
 C        -7.3699027530       -3.2404352570       -0.7388879173
 O        -7.7956358084       -2.7462007265       -1.7211639162
 C        -8.1633086735       -4.3492011187        0.0412690565
 C        -8.6174515428       -3.7112002727        1.4924618260
 O        -7.9600157911       -3.0812763459        2.2742081996
 C       -10.1996164412       -3.6436834275        1.7554080319
 C       -10.4190596399       -3.0324600448        3.1359788234
 C       -10.1895991424       -1.5442956300        3.0113793777
 O       -10.3922722996       -0.9291370470        2.0046377932
 C        -9.6746161988       -0.7260484312        4.1822669568
 C       -10.1054600514        0.7881291768        4.0502554939
 O        -9.2950522475        1.6930091999        3.9311674885
 C       -11.5433365293        1.2294755498        3.9414469186
 C       -11.7903149716        2.7196798159        3.5620614608
 C       -12.4933351388        2.8225833080        2.0983241508
 O       -12.9042473674        1.8348446637        1.5853731849
 C       -12.3586568985        4.2167762243        1.1016220122
 C       -10.7556332491        4.6381964705        0.7548546354
 O        -9.7669258423        3.9377428539        1.1635723612
 C       -10.4593174040        6.0522480768        0.0582277314
 C       -11.3613390622        6.7407953960       -0.8476898941
 C       -11.4621148802        6.2534845824       -2.3383718053
 O       -10.8193190649        5.2261220074       -2.5534427456
 C       -12.0997083941        7.1277829239       -3.4327382792
 C       -11.2920788780        8.6050161190       -3.5758978627
 O       -10.1348281534        8.6669723553       -3.9482747368
 C       -12.0372933815        9.8999621338       -3.1141212980
 C       -11.0962941472       11.1854437391       -2.9289941448
 C       -11.9343129732       12.4900879091       -3.1602112727
 O       -13.0102121001       12.2707990139       -3.6807961890
 C       -11.4933451837       14.0020029529       -2.7366438180
 C       -11.5685965867       14.0839265461       -1.1729614008
 O       -11.7999573518       13.1023430328       -0.5403685879
 C       -11.5641311904       15.5218202595       -0.5505998600
 C       -10.1560181443       14.4920061595       -3.3363617929
 C       -12.5506001362       15.0337151236       -3.0380856442
 C       -11.9605780849        6.4480913841       -4.8661319337
 C       -13.5758884013        7.2288216506       -3.1693441975
 C       -13.0637905085        4.0375776607       -0.2138998411
 C       -13.1999598566        5.3674793142        1.8412324261
 C       -10.2956560109       -1.1512149169        5.6130739484
 C        -8.1586720720       -0.9129012419        4.2016666842
 C        -9.5785474611       -4.6731926823       -0.6761907838
 C        -7.2874360480       -5.6320363218        0.1757598122
 C        -7.9050389250        1.6360936483       -1.6510401276
 C        -5.2574561781        1.2470144335       -1.9783249271
 H        -4.5803277003        1.5176389725        0.8680707166
 H        -4.8965009618        3.1279040220        1.5202923083
 H        -4.5600082851        2.9184476233       -0.1831320257
 H        -4.7458817712       -0.9821134649       -0.4793175631
 H        -5.8868785336       -1.4526266499       -1.5659620869
 H        -6.0843439126       -2.8580265462        1.0433968897
 H        -5.1607525911       -3.4971992116       -0.3279492662
 H       -10.6568270397       -4.6186990361        1.7139228788
 H       -10.5669507629       -2.9170157682        1.0475862524
 H        -9.9223113880       -3.5138384566        3.9262957497
 H       -11.4511177357       -3.1298599284        3.3720020671
 H       -11.7934010537        1.1295207557        4.9146410021
 H       -12.2106195702        0.4701462265        3.4876311415
 H       -10.8599155988        3.1954023019        3.5637417091
 H       -12.3741646041        3.1485020271        4.2835707686
 H        -9.4309901436        5.9804355200       -0.4544852305
 H       -10.2466550631        6.6367600231        0.9095836054
 H       -10.8873744561        7.6864845373       -0.9406865508
 H       -12.2846376122        6.9266704392       -0.5072336594
 H       -12.4576593868        9.6285161297       -2.1534308393
 H       -12.8936542978        9.8876030588       -3.7882187915
 H       -10.1727189029       11.1343177307       -3.5874535765
 H       -10.6708024381       11.3447122555       -1.8803437654
 H       -12.4985568877       15.8169860443       -0.0445918381
 H       -11.5149466330       16.2291724111       -1.3678430507
 H       -10.7250689753       15.6464411006        0.1453731329
 H        -9.1422509693       14.0665920307       -2.9812021280
 H       -10.0491559896       15.5818687686       -3.1015073126
 H       -10.2807638595       14.5261811961       -4.4090613208
 H       -12.1296022403       15.9672687434       -3.4397571856
 H       -13.2022450808       15.2845116933       -2.2460857172
 H       -13.2635294221       14.7065164460       -3.8031573504
 H       -12.9012148503        6.1481338509       -5.3612435126
 H       -11.6886399036        5.4014658960       -4.7439659554
 H       -11.2929815364        7.0759658507       -5.4205047869
 H       -13.8851580921        7.5115831471       -2.1293984583
 H       -13.9948275251        6.2985096637       -3.4050192900
 H       -14.1121964071        7.8921139447       -3.8931709103
 H       -13.6808811449        4.9224270768       -0.3892099087
 H       -13.7971767760        3.2095396687       -0.2449191150
 H       -12.4235557582        3.9361298600       -1.0783784868
 H       -14.2036926062        4.9119326092        1.8288563279
 H       -13.3771938888        6.2546081144        1.2944196703
 H       -12.9582312614        5.6416650699        2.8592632350
 H        -9.6475034196       -1.7311124206        6.2859625492
 H       -11.3224400151       -1.7064036194        5.5058469041
 H       -10.5483469498       -0.3115616577        6.1598038834
 H        -7.6293786948       -1.0590428732        3.3009687406
 H        -7.9425236933       -1.7861924699        4.7966023639
 H        -7.6425061205       -0.1657071624        4.6639387205
 H       -10.1767859785       -5.4696583994       -0.3598704598
 H        -9.0543915053       -4.9553595186       -1.6265690872
 H       -10.3261277093       -3.9071204689       -0.9194497121
 H        -6.3575420497       -5.4661175893        0.6988856050
 H        -7.0791299108       -5.9925481920       -0.8389246657
 H        -7.9468025002       -6.3864580495        0.6119279724
 H        -7.9947874091        0.8561879906       -2.3251926883
 H        -7.7023748421        2.5884321288       -2.0122227422
 H        -8.8228503437        1.5262476997       -1.0019023351
 H        -5.3311156977        0.5621785680       -2.8411608273
 H        -4.4114516992        0.8412764086       -1.4554463057
 H        -4.9688217098        2.2561871870       -2.2018927936
 Na       -9.5325362095        1.4350408860        1.3311169395
