117

 C        -5.3091797147        2.8248551669        0.5346304249
 C        -6.5641920982        1.8831005724        0.1836760621
 O        -7.4973022841        1.9202357943        0.9676948471
 C        -6.6734224550        0.9308928884       -1.1389912639
 C        -6.8483797980       -0.4164020157       -0.3890383931
 O        -7.7840389600       -0.7803592285        0.2941858239
 C        -5.6694740094       -1.3743299405       -0.5530619404
 C        -6.0314637350       -2.8269076078       -0.0489540594
 C        -7.4480557655       -3.1274537123       -0.6878339987
 O        -7.9144034209       -2.8194581433       -1.7939569784
 C        -8.3536251593       -4.1789254551        0.2391980836
 C        -8.7273658793       -3.6691779429        1.6670744757
 O        -7.7472185104       -3.4613543842        2.4313703848
 C       -10.1870024568       -3.6105561934        2.0909373661
 C       -10.6772948543       -2.8449857629        3.3394432890
 C       -10.4408799241       -1.3823289180        3.3128830013
 O       -10.6479914097       -0.6863726740        2.2737225276
 C        -9.8999122732       -0.7100729551        4.5269210958
 C       -10.2022921432        0.8280947478        4.2162904819
 O        -9.3611110588        1.6739710240        4.2637068821
 C       -11.6030917082        1.3080917943        3.9684712935
 C       -11.6644754321        2.7498935572        3.3313511127
 C       -12.3386175635        2.8275079039        1.9676210698
 O       -13.1011753502        1.9451732969        1.5606779488
 C       -12.2640310878        4.1686742113        1.1108549504
 C       -10.8025812866        4.6453057304        0.7660443256
 O        -9.9966138051        3.7968174501        0.7777808682
 C       -10.5245892673        6.0798486022        0.2881263970
 C       -11.4793244112        6.7227240045       -0.8123586438
 C       -11.3268387127        6.3008367308       -2.2074863931
 O       -10.7279885389        5.3892631868       -2.7579514533
 C       -12.0734300556        7.2588361400       -3.3429452007
 C       -11.3646670509        8.7058306709       -3.6091502790
 O       -10.2472146343        8.5993334141       -3.9869235155
 C       -12.0677835378       10.0259923710       -3.0476172113
 C       -11.1650890939       11.2635163595       -3.1322205690
 C       -11.9554925910       12.5948277537       -3.3258909084
 O       -13.1663507562       12.5016196900       -3.4275801524
 C       -11.4645780436       14.1204057266       -3.0064223143
 C       -11.3783441670       14.1410814163       -1.3906490757
 O       -10.9599323344       13.1347726432       -0.8214945465
 C       -11.2232302151       15.4532333849       -0.6645601435
 C       -10.0268949781       14.4365243717       -3.5328006747
 C       -12.5473052749       14.9074399843       -3.7685527822
 C       -11.9297782409        6.5406418658       -4.7399789659
 C       -13.5812115818        7.4604096463       -3.0687702844
 C       -12.7240948949        3.8036704565       -0.3818631153
 C       -12.9220193206        5.2111747831        2.0035799410
 C       -10.2108102654       -1.3048884973        5.8223426963
 C        -8.4268850086       -0.7351024502        4.4264871871
 C        -9.4721615704       -4.7372600394       -0.6401428656
 C        -7.2492251578       -5.2856987458        0.6872518146
 C        -7.8527837943        1.4441768354       -2.0212181390
 C        -5.4207893878        1.1106863096       -1.9806260719
 H        -4.3906341639        2.7187172500       -0.0476151070
 H        -5.0106033532        2.7724803990        1.6055912631
 H        -5.6841496743        3.8741862327        0.3614583964
 H        -4.7545486191       -0.8958650579       -0.1654894481
 H        -5.3887155829       -1.5476858385       -1.7257247917
 H        -6.1170132912       -2.9547558764        1.0686683391
 H        -5.1984626050       -3.3215842285       -0.4457294237
 H       -10.5160163091       -4.6667954421        2.1083630221
 H       -10.6287183701       -3.0417082205        1.2193892497
 H       -10.3519423108       -3.2614568246        4.3184427252
 H       -11.8330155244       -3.0168919971        3.3905719204
 H       -12.2153239314        1.1524602515        4.9573189010
 H       -11.9904367510        0.4792827257        3.3924981443
 H       -10.5688534885        3.1654672629        3.4676598049
 H       -12.3416719624        3.4512386933        3.9772243949
 H        -9.4889090147        6.1447629356        0.1282290657
 H       -10.7475621566        6.7556705313        1.2577644482
 H       -11.1494871343        7.7972853273       -0.8454950442
 H       -12.6225981781        6.7124110363       -0.5523847959
 H       -12.1783325545        9.8275213088       -1.9372159562
 H       -13.1005697355       10.1774595265       -3.3988732830
 H       -10.4171120510       11.3871101712       -3.8958928521
 H       -10.6680461340       11.3812495450       -2.2009705280
 H       -12.0294746990       15.6625412186        0.0625861943
 H       -11.1453421797       16.3378084342       -1.2718970447
 H       -10.3604283820       15.2196188856        0.0244134271
 H        -9.8425035005       13.9500804260       -4.4734957874
 H        -9.1684300792       14.2954424440       -2.8342459424
 H       -10.0350945259       15.5263277510       -3.7851033882
 H       -12.7858948023       15.8681812488       -3.1617696844
 H       -13.4883413515       14.3657320506       -4.0635842403
 H       -12.2347381206       15.3313775476       -4.7022303600
 H       -12.7094385230        6.8511027140       -5.4266545063
 H       -12.2561618471        5.5081041051       -4.6676701042
 H       -10.9836550639        6.8930457005       -5.2114358885
 H       -13.7127463931        8.1064723186       -2.2613720715
 H       -14.1799905052        6.5600399159       -2.7557076271
 H       -14.1465434963        7.8033269984       -3.8850057772
 H       -13.4543063905        4.4620092348       -0.8330689920
 H       -13.1872152819        2.8328675363       -0.3729240156
 H       -11.8821920505        3.7346941910       -1.0789557762
 H       -13.7453809155        4.9325209546        2.6304999904
 H       -13.2929393803        6.0257025117        1.3482969208
 H       -12.1813208808        5.7112647996        2.6416762441
 H        -9.7214326786       -2.2754646468        5.8606637498
 H       -11.1490081081       -1.3354917071        6.0699103951
 H        -9.6731861338       -0.7307925915        6.6374166451
 H        -8.1011654773       -0.8450934113        3.3662857491
 H        -7.7876260809       -1.4475226382        4.9519519802
 H        -7.9959726842        0.2971609988        4.6592537794
 H       -10.1420722373       -5.2836153319        0.0284109645
 H        -9.2321786559       -5.2888252245       -1.4785873760
 H       -10.1296404093       -3.9199868558       -0.8951225423
 H        -6.3308716942       -4.8054334193        1.1244030981
 H        -6.9525618179       -5.7674873157       -0.2415493535
 H        -7.7868990831       -6.0810013811        1.2303537172
 H        -8.1303172238        0.6170695243       -2.8226396198
 H        -7.5072944850        2.4697352326       -2.3907110224
 H        -8.5879134659        1.5976811482       -1.2802174060
 H        -5.3901083108        0.3794008519       -2.7817189137
 H        -4.4464119707        0.9299279486       -1.4799439653
 H        -5.3787665043        2.1614682567       -2.3004016680
 Na       -9.5131378630        0.9130610168        1.1698034730
