117

 C        -5.9499354154        3.5115697598       -0.8308709268
 C        -6.9439105909        2.4657635294       -0.3072907864
 O        -7.7058360172        2.6972287325        0.6666638072
 C        -6.9571911793        1.0660131162       -1.1372726629
 C        -7.2432970902       -0.2913520045       -0.2147771656
 O        -8.1716903788       -0.2193468710        0.5724855008
 C        -6.2304476337       -1.5335393989       -0.3278184680
 C        -6.7022901780       -2.7169971423        0.5770955228
 C        -7.8986007177       -3.4412837547        0.0429340664
 O        -8.3280376931       -3.3527661184       -1.0396708954
 C        -8.5306022372       -4.5927192534        0.9882830142
 C        -9.0198120028       -3.6917852290        2.1784459472
 O        -8.2091001088       -3.1496271546        2.9756391000
 C       -10.5398499400       -3.4110982060        2.3661555329
 C       -10.6896487113       -2.7532164528        3.6967675106
 C       -10.2285328710       -1.2433726057        3.4356300080
 O        -9.9114701215       -0.7183068818        2.4048470198
 C       -10.0868392750       -0.3991017445        4.7621666828
 C       -10.1195802673        1.2145677719        4.2060030698
 O        -9.1269742323        1.8191376175        3.8388698754
 C       -11.5209120723        1.8549606305        4.2761720319
 C       -11.6220778662        3.0846025247        3.3458623792
 C       -12.0688253819        2.6461240789        1.7814556469
 O       -12.0442813430        1.4733821428        1.4074364254
 C       -12.5485053207        3.7346958775        0.8585039047
 C       -11.2440739678        3.9105681004       -0.2042093538
 O       -11.1092700596        3.1268913064       -1.0423534608
 C       -10.2268090068        5.1190007226        0.1687190356
 C       -10.7859436187        6.5528471725       -0.3676965368
 C       -10.8435493954        6.4998574306       -1.9162017510
 O       -10.1242902195        5.7401948327       -2.6429052168
 C       -11.9530378311        7.3701021856       -2.6332194097
 C       -11.2384705931        8.7345952739       -2.9540745642
 O       -10.0385808426        8.7592414056       -3.2165117263
 C       -12.0363802064       10.0155623373       -3.0269703916
 C       -11.2245675447       11.1971595840       -3.5620474846
 C       -11.7572573603       12.6207022276       -3.4388781604
 O       -12.8118284214       12.8262058199       -2.8742890964
 C       -10.8531168335       13.7963473723       -3.8567331690
 C        -9.9982399044       14.2277434600       -2.5823413439
 O        -8.8580676835       13.9025675779       -2.4897084619
 C       -10.7125958820       14.8738930163       -1.4887694005
 C       -10.2501585428       13.4730411352       -5.2769111081
 C       -11.8052555847       14.9747986581       -4.2679086337
 C       -12.2386787723        6.7655478208       -4.1342696238
 C       -13.3556001962        7.3717556778       -1.8327106425
 C       -13.6396864864        3.1003601806       -0.0162814859
 C       -12.9806326808        5.1340796717        1.5285617357
 C       -11.0889794086       -0.7266768317        5.9809242102
 C        -8.6710381125       -0.5120561723        5.3025331881
 C        -9.6900491527       -5.3748128704        0.3233612317
 C        -7.1785085647       -5.4005287940        1.2583450825
 C        -8.1205031825        0.9236017810       -2.0796535221
 C        -5.6369509494        0.9613999562       -2.0669771437
 H        -5.6752567344        4.2411924383       -0.1157808488
 H        -6.2859815938        3.9920598627       -1.7065841785
 H        -4.9735240917        3.0217644708       -0.9451704797
 H        -5.3769818798       -1.0876084830        0.2523549977
 H        -5.8343528896       -2.0277300812       -1.2616989875
 H        -6.9112546775       -2.5457900035        1.7070812167
 H        -5.8482476365       -3.3228597999        0.3763937976
 H       -10.9630801677       -4.3697243739        2.2658602820
 H       -10.9841473250       -2.8080130250        1.5441443861
 H       -10.0652650979       -3.2196012258        4.4174567332
 H       -11.7645724099       -2.8552331333        4.2185727660
 H       -11.6978233806        2.1692427683        5.2580752230
 H       -12.3396046465        1.2662120460        3.9277044173
 H       -10.7509317488        3.6818659710        3.5414665605
 H       -12.4788862417        3.6138984258        3.6189482388
 H        -9.3592542901        4.8185795303       -0.3656526809
 H       -10.2491241881        5.1271229914        1.3146373047
 H        -9.9887640517        7.2743732828       -0.2046186848
 H       -11.6034735245        7.0015651075        0.0468831321
 H       -12.2977907561       10.2165172503       -1.9213948256
 H       -12.9381622971        9.9322949607       -3.5206934155
 H       -11.1004647680       10.8580748427       -4.6026263410
 H       -10.2270959973       11.0791480143       -3.0097395322
 H       -10.4053198339       15.9280205284       -1.4090726380
 H       -10.5347743610       14.3374165369       -0.5604470168
 H       -11.8011710202       14.9258815622       -1.6645437548
 H       -10.4603136307       12.4334354541       -5.4612991870
 H        -9.1655336531       13.6749515055       -5.1584898523
 H       -10.7115223087       14.1827925600       -5.9358628371
 H       -12.4176617685       15.4803270439       -3.5233602881
 H       -12.4823647735       14.5975952457       -5.0079803369
 H       -11.1061748328       15.7604885742       -4.6379616424
 H       -11.2492346273        6.3729536839       -4.3827633490
 H       -12.5556870295        7.5018236630       -4.8887831276
 H       -13.1392450214        6.1436922996       -4.0613061891
 H       -13.4471093323        7.8110761359       -0.8585953651
 H       -13.6623828991        6.3129839498       -1.7051800579
 H       -14.1771586704        7.9410881863       -2.2979345162
 H       -13.5745144463        3.3305108769       -1.0775569853
 H       -14.5897618508        3.5490964564        0.3033201110
 H       -13.6536275489        2.0207352575        0.0477931983
 H       -13.9554773498        5.1161483787        2.0220178804
 H       -13.0521861131        5.8943217997        0.7669807154
 H       -12.2228870578        5.4115955643        2.2901632530
 H       -11.3560743482       -1.7194876117        5.9778902730
 H       -12.0609177442       -0.1412930638        5.7648200931
 H       -10.7343507745       -0.4324346086        6.8609096704
 H        -8.4900010127       -1.2707802285        6.0278666256
 H        -8.3803197163        0.4326289063        5.8113402819
 H        -7.9310676795       -0.5808566693        4.5719505675
 H        -9.9959045054       -6.2093754407        0.9599149759
 H        -9.5060210138       -5.8248381223       -0.6610482390
 H       -10.4647676802       -4.5922388822        0.0209260577
 H        -6.5545788663       -4.9073415726        1.9741685236
 H        -6.7944146165       -5.6373197704        0.3152418008
 H        -7.4521823862       -6.2474576431        1.8774113255
 H        -8.0177104474       -0.0684796731       -2.5262188144
 H        -8.0511418497        1.6402452126       -2.8662037627
 H        -9.0989182917        1.1448448580       -1.5235745387
 H        -5.5984986294       -0.0146739311       -2.5984995110
 H        -4.7375925256        1.0512908027       -1.5011357135
 H        -5.7118159247        1.6524267749       -2.8521165587
 Na       -9.7247859409        1.3861906549        1.0701752113
