117

 C        -6.2028762693        3.1620022673       -0.8658051530
 C        -7.2375179970        2.0594052413       -0.8199568398
 O        -8.2076670209        2.2702673046       -0.1748206824
 C        -7.2249382532        0.7345783972       -1.7162463459
 C        -7.2652517134       -0.2914175640       -0.6407195964
 O        -8.2425435908       -0.2367498940        0.1165567471
 C        -6.2905468304       -1.4502556761       -0.7010035044
 C        -6.4994064650       -2.4096160323        0.4148114524
 C        -7.9238822389       -3.0952595892        0.3704872565
 O        -8.5595726235       -3.0021809684       -0.6773148383
 C        -8.3920248893       -4.1052310913        1.4699167012
 C        -8.9777918061       -3.5537123555        2.9584076268
 O        -8.2861063012       -3.3226394578        3.9434000149
 C       -10.5552444240       -3.4963073716        3.0386239148
 C       -11.0510268532       -2.4824712400        4.1260906234
 C       -10.4945028802       -1.0985071896        3.6281058904
 O       -10.1142300225       -0.9460378198        2.4446147636
 C       -10.3080906376       -0.0628183189        4.6949586986
 C       -10.4960800860        1.4635951348        4.3259629708
 O        -9.5038581157        2.1421560079        4.1781010705
 C       -12.0146263643        2.0700385150        4.4943163473
 C       -12.3465789233        3.2296359188        3.5150060836
 C       -12.2237275048        2.7767469900        2.0896677587
 O       -11.5617536032        1.7891522860        1.8743999503
 C       -12.7706120465        3.5701698832        0.8420428618
 C       -11.4445954791        3.8347062884       -0.2592370620
 O       -11.3529770496        3.2449546682       -1.2569689034
 C       -10.3297121025        4.8789521169        0.2369864482
 C       -10.1419438934        6.1829448881       -0.5189010295
 C       -10.6961029347        6.3325199123       -2.0002491486
 O       -10.3859387917        5.5127200589       -2.8499936470
 C       -11.7805277023        7.4164953708       -2.4318607049
 C       -10.9997506754        8.7864676034       -2.5969118607
 O        -9.8752301582        8.8080669357       -2.0451353705
 C       -11.6850912297       10.0842803561       -3.1085801997
 C       -10.7685777956       11.0548746211       -3.9848488506
 C       -11.1740706027       12.4612990470       -3.7609845841
 O       -12.1761908746       12.4733692137       -3.0004986264
 C       -10.5764854478       13.6839447688       -4.4433493068
 C        -9.3889993095       14.1422990717       -3.5360304340
 O        -8.4052867554       14.7025502044       -3.8970133563
 C        -9.5941290433       13.9015139893       -2.1018721871
 C       -10.0763572760       13.4727653302       -5.9788123637
 C       -11.5646476000       14.8373678008       -4.2610331916
 C       -12.5599622591        6.8281677893       -3.7514935188
 C       -12.9329468136        7.8258337367       -1.3691546755
 C       -13.8800079534        2.8684993481        0.1444418525
 C       -13.2661216070        4.9199626760        1.3025023506
 C       -11.3054438068       -0.2471316130        5.9279903739
 C        -8.9027109375       -0.2721405854        5.1914192578
 C        -9.5458095046       -5.0710735065        0.9014520845
 C        -7.1161208190       -5.1593460094        1.8494333976
 C        -8.5326941267        0.7151444042       -2.5151409381
 C        -5.9598155521        0.7287390911       -2.6509766073
 H        -6.5347365783        3.7222076863       -0.0396732713
 H        -6.3372771835        3.7612431486       -1.7433395949
 H        -5.1148439530        2.9004101090       -0.8753838412
 H        -5.2649783504       -1.0951672092       -0.7806129042
 H        -6.4973438029       -2.1970037819       -1.6067733278
 H        -6.6783693263       -2.0048106237        1.3914894318
 H        -5.7189917031       -3.2123961129        0.4550063562
 H       -10.9247253579       -4.5593230910        3.1704731137
 H       -10.9674513445       -3.2807725616        2.0703432553
 H       -10.5659678588       -2.8586229295        5.0171501704
 H       -12.1219542026       -2.5478812260        4.2066152368
 H       -12.3026015993        2.4016570422        5.6055293047
 H       -12.8558510787        1.4384332069        4.2214174441
 H       -11.5119202625        4.0801836806        3.6201699885
 H       -13.3350544863        3.7656821769        3.8016384972
 H        -9.2781641185        4.3998629551        0.1798037470
 H       -10.4765399893        5.0864413329        1.2909907663
 H        -8.9866339779        6.2207635918       -0.7307251483
 H       -10.3667903756        7.1369843304        0.0907397969
 H       -11.9994171387       10.7388591526       -2.3222132929
 H       -12.6717914405        9.8060053017       -3.6895833124
 H       -10.8892120979       10.7404692255       -5.0460344131
 H        -9.8085305781       10.7229094560       -3.6437337355
 H       -10.6296167969       13.6390661483       -1.8613596858
 H        -9.3309712317       14.5790668206       -1.3580424855
 H        -8.7953646542       13.1178904244       -1.8118775678
 H       -10.6414683238       12.9210199944       -6.6361915742
 H        -9.0939648164       13.1248255540       -5.7468426131
 H       -10.0431011176       14.5590195719       -6.2994360130
 H       -11.4779694724       15.1962409109       -3.1438340695
 H       -12.6391173467       14.5845883239       -4.2612821566
 H       -11.3657011730       15.5083055028       -5.0445271010
 H       -11.8601005534        6.8137516251       -4.5698426297
 H       -13.3113778476        7.5777255039       -3.9735254436
 H       -12.9403522846        5.8450223073       -3.3433332943
 H       -12.7033097253        8.2180488670       -0.4249194535
 H       -13.6396572266        6.9758968933       -1.1470157233
 H       -13.5821579620        8.4815384800       -1.8851669085
 H       -14.5584355324        3.5961313701       -0.2981384591
 H       -14.4013411066        2.2058667864        0.8164772862
 H       -13.4558029536        2.2829859382       -0.7037554889
 H       -14.0378120745        4.5704245803        1.9758147791
 H       -13.7658731136        5.4458619584        0.4572833598
 H       -12.6132549121        5.6507413099        1.7460092326
 H       -11.0143621507        0.4558721651        6.6967700245
 H       -11.1642006874       -1.3300501636        6.3428963581
 H       -12.2617856823       -0.0772953557        5.6764469714
 H        -8.1559984390        0.2725720335        4.6195871935
 H        -8.6352063273       -1.2883019650        5.1266105059
 H        -8.8007380313        0.0433156498        6.2353786043
 H        -9.7426700860       -5.7779989253        1.7605353065
 H        -9.3749605448       -5.6410040874        0.0307500110
 H       -10.4615771318       -4.5035210405        0.9108750467
 H        -6.1130958358       -4.6815028636        1.9014409663
 H        -7.0588979350       -5.8961426350        1.0471631257
 H        -7.4698129238       -5.6293271678        2.7713097916
 H        -8.7071671289       -0.3776019995       -2.9006254483
 H        -8.4453575725        1.5725288722       -3.2161804135
 H        -9.3639114374        0.7775781106       -1.8547833013
 H        -5.8149442590       -0.2578214154       -2.9563784527
 H        -5.0029807381        1.1040010965       -2.3064359269
 H        -6.1430466053        1.3714247669       -3.5005420066
 Na       -9.4929718080        1.0819796133        1.5390354128
