117

 C        -6.1908082369        3.0859575586       -1.0204171565
 C        -7.3208363389        2.0862702934       -0.9039455384
 O        -8.2908230496        2.1791170671       -0.0927087233
 C        -7.2551061821        0.7605256966       -1.7528285421
 C        -7.2695657293       -0.3636831704       -0.6863631554
 O        -8.2368997543       -0.4225060471        0.0772595406
 C        -6.3726033357       -1.6157770208       -0.7240338288
 C        -6.5951637787       -2.4799881773        0.5186521131
 C        -8.1167631238       -3.1343894139        0.3904473840
 O        -8.7502325975       -2.9327689574       -0.5896258679
 C        -8.3953384249       -4.1028420551        1.6175622040
 C        -8.9156408133       -3.5238948917        2.8974077558
 O        -8.1262887282       -3.2473472831        3.8397307015
 C       -10.3710816804       -3.4637190759        3.0973372193
 C       -10.9379187571       -2.4234842258        3.9890661894
 C       -10.5892768934       -0.9216042469        3.6123003676
 O       -10.2509014833       -0.7593034869        2.4642642544
 C       -10.3872282850        0.0485875754        4.8121122645
 C       -10.5631034790        1.6027663876        4.4422353544
 O        -9.6165006135        2.2887442743        4.1551092529
 C       -11.9671639248        1.9618201942        4.3838667261
 C       -12.3033866518        3.1668270553        3.5554566648
 C       -12.1587238727        2.7934862816        2.0606725836
 O       -11.6600549314        1.7388444220        1.7761903974
 C       -12.7961661566        3.6598770444        0.9159344769
 C       -11.4850632150        3.8637196434       -0.2314284718
 O       -11.4636813002        3.2046919778       -1.2243074010
 C       -10.5255294761        4.8774832388        0.2734943901
 C       -10.1260145707        6.1499188597       -0.5938090006
 C       -10.8785938642        6.2786424994       -1.9456939289
 O       -10.4285991009        5.5104732977       -2.8328183836
 C       -11.8186633304        7.4356808537       -2.4133847087
 C       -10.9219495492        8.7462791460       -2.5192784148
 O        -9.8486303743        8.8764933790       -1.9707954200
 C       -11.5701956509        9.9164189333       -3.1835469140
 C       -10.5864048447       10.8713188247       -3.8934555928
 C       -11.3737201327       12.2844808297       -3.9448848425
 O       -12.1642677481       12.6451087658       -3.1019205727
 C       -10.5093950984       13.6428470757       -4.4934026327
 C        -9.2452415864       14.0770872839       -3.6511500568
 O        -8.4201673042       14.6972369041       -4.2624774535
 C        -9.1214763444       13.8702917253       -2.0268733295
 C        -9.9644998085       13.6341240248       -5.9247586518
 C       -11.6460036455       14.8074183206       -4.3259289709
 C       -12.4712200635        6.8923165439       -3.7030080176
 C       -12.8558144788        7.8264158648       -1.3779711783
 C       -13.8403073070        2.7835337744        0.1187326596
 C       -13.3715942120        5.1030326787        1.3519286694
 C       -11.3873906224       -0.1897638709        6.1236772618
 C        -8.9082736402       -0.2925313854        5.2564312978
 C        -9.3274175046       -5.0352460644        0.8900817942
 C        -7.1181286861       -4.9538184855        2.0301964425
 C        -8.6069421281        0.6022109117       -2.4557799498
 C        -5.9357533242        0.5802695324       -2.6771056961
 H        -6.2543424484        3.6725759716       -0.1156950420
 H        -6.1543595106        3.7325329879       -1.8784882301
 H        -5.2479437398        2.4783522533       -1.0962538541
 H        -5.4400271504       -1.1621926191       -0.6430122717
 H        -6.3812260983       -2.3443153792       -1.5269616710
 H        -6.6796803664       -2.0793056514        1.5423196126
 H        -5.8851354314       -3.2749125065        0.5361396713
 H       -10.7284962877       -4.4665832337        3.4744731403
 H       -10.8512112752       -3.4790874690        2.0924238144
 H       -10.5482758352       -2.7539176993        4.8419416335
 H       -12.0178507868       -2.7006098829        3.9463648897
 H       -12.2854207704        2.1554904887        5.4567951626
 H       -12.7110670912        1.2122419153        4.0252046201
 H       -11.7262820174        4.0578136559        3.9694763618
 H       -13.3869353430        3.4140294880        3.7301325917
 H        -9.6193078330        4.3714873874        0.3950130549
 H       -10.7106441018        5.1985390480        1.3348792815
 H        -8.9808152601        6.3407886089       -0.6910696911
 H       -10.5230110494        6.9741446353       -0.0070758758
 H       -11.9404026306       10.5722820365       -2.3584194435
 H       -12.3928006520        9.6871736457       -3.7577511450
 H       -10.2985662794       10.3821070267       -4.8104024284
 H        -9.7130593815       10.9093802482       -3.2765979569
 H       -10.0727318742       13.7896457671       -1.5225563519
 H        -8.6697627896       14.6391550618       -1.4045358258
 H        -8.4085264382       13.0943373947       -1.7231911858
 H       -10.6366425186       13.1695485156       -6.6266434666
 H        -8.9792395553       13.1811824363       -5.7626144117
 H        -9.8507633285       14.6828945077       -6.1528087720
 H       -11.4464580951       15.2655750392       -3.4047866168
 H       -12.6742942312       14.4372509305       -4.1669392922
 H       -11.6831814350       15.4632741827       -5.2778948649
 H       -11.7703991602        7.0994982978       -4.5094951665
 H       -13.4439833615        7.3657833108       -3.8733004305
 H       -12.4485073800        5.8194199715       -3.4251016029
 H       -12.5127407961        8.1050189698       -0.4322762039
 H       -13.5404323420        6.9755717652       -1.1620078468
 H       -13.4881111568        8.6185834230       -1.7583900201
 H       -14.2866428728        3.4599603378       -0.6104186192
 H       -14.6116097156        2.4558063941        0.8174918589
 H       -13.4153044269        1.9030339007       -0.4009230692
 H       -14.0442091957        4.9547721434        2.1693291056
 H       -13.9296763623        5.5014925611        0.5080628990
 H       -12.6370040830        5.8848139031        1.5808188357
 H       -10.7569069439        0.0405384613        7.0717858192
 H       -11.6058864074       -1.2691704167        6.1737244548
 H       -12.3572345741        0.4307813174        6.2141290803
 H        -8.1858738021        0.4926536256        5.0831633270
 H        -8.5709125654       -1.2137591953        4.6916705727
 H        -8.8779829620       -0.5346178380        6.2917606053
 H        -9.7987887187       -5.8173152025        1.4201573954
 H        -8.8128793653       -5.4103078335        0.0555173429
 H       -10.0924896569       -4.3517266702        0.5788746923
 H        -6.1815969999       -4.3754407604        1.9598713100
 H        -7.0310979256       -5.7607000292        1.3060424130
 H        -7.3799541528       -5.4112223786        3.0297656546
 H        -8.7135818021       -0.4537905444       -2.5951115163
 H        -8.7106605750        1.2514116473       -3.3217317739
 H        -9.4521446885        0.6814719041       -1.6633800881
 H        -5.8178563316       -0.5219108778       -2.8967271464
 H        -4.9903463454        0.9534695205       -2.3063103294
 H        -6.0086848256        1.1263459516       -3.5861850702
 Na       -9.4433806010        1.0786282785        1.5423487148
