117

 C        -6.3106297615        2.9718908776       -1.8446800552
 C        -7.3662381498        2.1007449608       -1.1053588637
 O        -8.0892816982        2.4699296298       -0.1756656790
 C        -7.5163520338        0.6388583637       -1.5964716190
 C        -7.4695666534       -0.5642685980       -0.3695147590
 O        -7.7880768830       -0.2989028413        0.7313067709
 C        -6.8149122108       -1.8536237903       -0.7129401601
 C        -6.7368257495       -2.8868729633        0.4291932797
 C        -8.1233522075       -3.5921512639        0.5897195734
 O        -9.1200996510       -3.4538790003       -0.1224265669
 C        -8.2313054519       -4.3966141964        1.9708781265
 C        -8.7168069907       -3.2409863191        2.8087969711
 O        -7.9544646596       -2.3985000151        3.0912701999
 C       -10.2349054605       -3.2706220669        3.2075044213
 C       -10.6813596610       -2.3811350169        4.3753200421
 C       -10.5437999196       -0.9550995947        4.0742562452
 O       -10.8173994762       -0.6093297346        2.9243656648
 C       -10.3645618195        0.1699084577        5.1572635275
 C       -10.6805975070        1.4932132721        4.2808593529
 O        -9.8273597283        2.0995174976        3.5875522402
 C       -12.0872124889        2.0945619453        4.3525766637
 C       -12.4958501258        3.2173347594        3.3664645602
 C       -12.4163073623        2.9213494553        1.9073389155
 O       -11.9105007901        1.9146669539        1.4743058452
 C       -13.0164705489        3.8528042874        0.8401082072
 C       -11.8908304651        4.1499826607       -0.2720829144
 O       -12.0849160721        3.5789227399       -1.3125937739
 C       -10.6433555985        4.8427727349        0.2454334247
 C       -10.5369250437        6.2146811505       -0.4283279460
 C       -10.9777178876        6.1826917384       -1.8291312494
 O       -10.4886260872        5.4536832865       -2.6270713675
 C       -11.6302889651        7.5310095778       -2.4714970696
 C       -10.6168296446        8.6628731850       -2.5731405101
 O        -9.8570855999        8.6929732203       -1.5976572885
 C       -10.8190892812        9.7769129314       -3.5731227055
 C       -10.2702071622       11.2093190396       -3.0813605267
 C       -10.9084311270       12.3889158348       -3.7242088392
 O       -12.0873820685       12.4181931112       -3.3851126999
 C       -10.1594070281       13.4736643062       -4.6838092179
 C        -8.5797542844       13.8003944230       -4.3240454009
 O        -8.0945397265       14.4065329362       -5.3184201902
 C        -8.1382322777       13.6994287285       -2.9092517271
 C       -10.2346855349       13.1375828337       -6.2206952577
 C       -10.9808997717       14.6951536315       -4.4483392016
 C       -12.1922763724        7.0207465792       -3.9230484477
 C       -12.7567813230        8.1205598081       -1.4955436226
 C       -14.2370140828        3.1181136666        0.2003290190
 C       -13.3734004587        5.2233823414        1.4272405063
 C       -11.4156410796       -0.1074712586        6.2552685915
 C        -8.7988454131        0.0890785678        5.5731737470
 C        -9.2322513723       -5.5507524347        1.7198518587
 C        -6.8456020628       -4.7826068657        2.7431088952
 C        -9.0387458836        0.5131407238       -1.8845211389
 C        -6.7532841849        0.2092580534       -2.8810125503
 H        -6.3107194666        4.0135717119       -1.4946628911
 H        -6.3016650276        2.9692392228       -2.9445218518
 H        -5.4266063009        2.4571380961       -1.6803882694
 H        -5.8104345798       -1.7505224443       -0.9949739636
 H        -7.4051694393       -2.1524019996       -1.4912045112
 H        -6.3906481180       -2.6592035867        1.4658945319
 H        -6.0723524037       -3.7219786770        0.1979104617
 H       -10.6519145242       -4.2632120321        3.3111776669
 H       -10.7657087911       -2.7729207529        2.3169541661
 H        -9.9823504056       -2.7462584939        5.2732242056
 H       -11.6910338741       -2.6666561114        4.5409764510
 H       -12.4803868721        2.4150062319        5.2825466596
 H       -12.8153897794        1.2322816511        4.1540376933
 H       -11.9836974212        4.1540391076        3.6075145075
 H       -13.5604666897        3.4400263357        3.5323100810
 H        -9.7970891239        4.4092513496       -0.2934614125
 H       -10.2886475669        4.8414098016        1.2404225472
 H        -9.5711143158        6.5509042088       -0.4258170198
 H       -11.2304654965        6.9355070283        0.0538719394
 H       -11.7630268777        9.9560154087       -3.9918370234
 H       -10.2284764107        9.3989788519       -4.4278529123
 H        -9.2092455385       11.2502796800       -3.0683400644
 H       -10.5320431794       11.2832017978       -2.0078230394
 H        -9.0509981233       13.9951299813       -2.3346634209
 H        -7.3212153716       14.3873571036       -2.6325338161
 H        -7.7410221518       12.7841784809       -2.4776577955
 H       -11.3266371353       12.9804920510       -6.2960428593
 H        -9.7286509761       12.2465923067       -6.5268289978
 H        -9.8175030085       14.0076306339       -6.6800237812
 H       -11.0665273246       14.8499740462       -3.3192588815
 H       -11.9246796413       14.4480281676       -4.9815240214
 H       -10.6648351788       15.5777124980       -4.8447990780
 H       -11.3163046335        6.5105695477       -4.3085028592
 H       -12.6616027923        7.8909792693       -4.3748208665
 H       -12.8148222107        6.1922336966       -3.7826091392
 H       -12.2030399271        8.6683143804       -0.6958447253
 H       -13.3749377861        7.4375979502       -1.0710496460
 H       -13.2903181409        8.9366971047       -1.9634393218
 H       -14.6156036213        3.5914479439       -0.7010658297
 H       -15.0808076962        2.9843132803        0.8878546769
 H       -13.8288456703        2.1344114318        0.1098447159
 H       -14.0755200533        5.0391798832        2.2725149424
 H       -13.9327642199        5.8294231061        0.7474608837
 H       -12.4669489718        5.7028872554        1.8070676143
 H       -11.8383393611        0.8209681156        6.8005014920
 H       -10.8201583853       -0.6394300642        7.1561483559
 H       -12.2340571778       -0.7737718741        6.0055847851
 H        -8.6624470556        0.0842696644        6.6455979789
 H        -8.3816082130        0.9783151124        5.1533178355
 H        -8.2768656485       -0.7548359191        5.1325036451
 H        -9.4884401999       -5.9508011148        2.6657265555
 H        -8.7204663870       -6.2451934317        1.0514697101
 H       -10.0916123463       -5.2115219387        1.2473744641
 H        -6.4457130396       -3.8131824457        3.0933425415
 H        -6.0308953043       -5.4657463873        2.3207528290
 H        -7.2053369949       -5.3843365175        3.5746402758
 H        -9.2397911064       -0.4991822751       -2.3004345230
 H        -9.4311925067        1.1455824572       -2.7444033683
 H        -9.4675569359        0.6596505411       -0.9790225520
 H        -6.7921031789       -0.8247364689       -3.1602973741
 H        -5.6962333590        0.4728332117       -2.8652904965
 H        -7.3361127167        0.6335668825       -3.7116094512
 Na       -9.5748284409        1.2682018732        1.5227443687
