117

 C        -7.0299261221        2.7269263774       -1.6958545080
 C        -8.0398708449        1.9266424030       -0.8766975138
 O        -8.5634804719        2.3528421854        0.1385402541
 C        -8.4030541452        0.4282209221       -1.4237590873
 C        -7.8082536391       -0.6159525255       -0.3302013524
 O        -7.5628065913       -0.1497432381        0.8197228533
 C        -7.3558077358       -2.0480714421       -0.6693902479
 C        -6.9336795200       -2.7838298994        0.5956383151
 C        -7.7917537796       -3.9745600369        0.8058563172
 O        -8.3445878272       -4.4703858394       -0.1901525913
 C        -8.1225597999       -4.5157990933        2.3012924125
 C        -8.7418632863       -3.1971682524        3.1276769348
 O        -7.8846920781       -2.4086797067        3.4329651492
 C       -10.2659651562       -3.4050619494        3.9306633634
 C       -10.8450790862       -2.1222109736        4.5777444629
 C       -10.3261859622       -0.7835178518        4.0178246144
 O        -9.9565096665       -0.8874050708        2.8669490825
 C       -10.1652140281        0.4016412113        4.9949518601
 C       -10.7947811922        1.6572124270        4.1870577452
 O       -10.1067139268        2.2962831162        3.4709454402
 C       -12.2582491000        2.0994052649        4.3787939502
 C       -12.6913042621        3.3062063345        3.4473205615
 C       -12.4834207193        3.1292681748        1.8615479116
 O       -11.7904985966        2.2409167433        1.3279636627
 C       -13.3870690196        4.0608055400        0.9812021415
 C       -12.4087511561        4.1862796744       -0.4648970085
 O       -12.8771984633        3.7041739348       -1.5049138149
 C       -10.9895469901        4.7091786899       -0.3565290568
 C       -10.8104842710        6.2650958793       -0.5838515962
 C       -10.6328724154        6.5282458986       -2.0524501969
 O       -10.0228308207        5.6480387253       -2.7027345678
 C       -11.3005287655        7.7705738708       -2.6796429220
 C       -10.2703039596        8.9586975034       -2.5189973183
 O        -9.6389791613        9.0750666076       -1.4923813755
 C       -10.2085023580        9.8365215322       -3.6573413442
 C        -9.4914231579       11.2400024761       -3.4317244046
 C       -10.5038323976       12.3417415540       -3.8375586916
 O       -11.5212062879       12.5043763759       -3.1596448221
 C        -9.9467314417       13.3152753037       -4.9078146549
 C        -8.3452851661       13.2927286086       -4.9385558933
 O        -7.6226802804       12.8111946383       -5.7180502059
 C        -7.8081654001       14.0991696234       -3.6270204732
 C       -10.5784407261       12.7739772113       -6.2804634435
 C       -10.5101152720       14.7208809586       -4.7001618492
 C       -11.4754308680        7.5148168693       -4.2153801369
 C       -12.7185978715        8.3656852923       -2.1465580112
 C       -14.7475317890        3.4114953268        0.6653557467
 C       -13.7040768545        5.3820778939        1.4798549298
 C       -10.9761343779        0.2327794366        6.3181469504
 C        -8.6346076525        0.6795968580        5.1489647971
 C        -8.9594764990       -5.8155574188        2.0662285577
 C        -6.8763709338       -4.9124576899        3.0561900332
 C        -9.9717453368        0.4099427445       -1.2598604333
 C        -7.9886531326        0.0961869042       -2.8589659840
 H        -6.3282174996        3.2928843918       -1.1534682287
 H        -7.6310116724        3.4227955218       -2.2302730308
 H        -6.4809550725        2.1951301572       -2.5216141202
 H        -6.4488542874       -1.8945624058       -1.1423664442
 H        -8.0272459722       -2.5167570398       -1.3634105678
 H        -6.9206280473       -2.1612910102        1.4409118446
 H        -5.9745248159       -3.4166993309        0.5518516764
 H        -9.9006160904       -3.9916888171        4.8000613263
 H       -10.9858390474       -3.8827607954        3.2655337078
 H       -10.7671764845       -2.1995853752        5.6382841649
 H       -12.0615794017       -2.1343612643        4.3817149720
 H       -12.2228038492        2.6348113355        5.3685843589
 H       -12.9987755950        1.4210832308        4.5477221545
 H       -11.9048222737        4.0073519416        3.6600337807
 H       -13.6068853489        3.7456008857        3.7190832634
 H       -10.5228078946        4.2097192398       -1.2550047835
 H       -10.5058055345        4.5247896928        0.5487190713
 H        -9.9677143804        6.7106823879       -0.0904048178
 H       -11.5992846071        6.7778273229       -0.2408938440
 H       -11.1515839171       10.1735702445       -4.0610777229
 H        -9.7113760010        9.2688006482       -4.4937069607
 H        -8.4791625801       11.3308725806       -3.8035624091
 H        -9.3254946190       11.3355168397       -2.3643200964
 H        -8.1534536365       14.0787111555       -2.6390263918
 H        -7.7297840069       15.1042995165       -3.9371111624
 H        -6.7886545625       13.7286219347       -3.3635567965
 H       -11.3691139173       13.4162964313       -6.5519456817
 H       -10.8912473209       11.7433970008       -6.1202950059
 H        -9.6875372479       12.8560739039       -6.9659640001
 H       -10.2221520742       15.2000498376       -3.7723517332
 H       -11.5600464264       14.7065216458       -4.8553892109
 H        -9.9875411608       15.4364193795       -5.4487564409
 H       -10.5214805818        7.2622154896       -4.6615084574
 H       -12.0281553808        8.3395875428       -4.5830437444
 H       -12.2901989861        6.7459652129       -4.1384173572
 H       -12.7209767594        9.0785340880       -1.3999792672
 H       -13.4963648866        7.5584799274       -1.9722138125
 H       -13.0463533558        8.7749302000       -3.0530958410
 H       -15.5067956412        4.1959203055        0.7897021784
 H       -15.0364494745        2.6845484373        1.4186591265
 H       -14.8252826479        3.0704502996       -0.3958807203
 H       -14.3587127626        5.2961618229        2.3650245399
 H       -14.0989905397        6.0742587109        0.6881829989
 H       -12.7397328972        5.7719052871        1.8289649032
 H       -11.3733985773        1.2365414730        6.6982197399
 H       -10.4735554900       -0.2299530404        7.1254468541
 H       -11.9657495376       -0.4284517342        6.0814044312
 H        -8.5078216333        0.8165638210        6.1908895159
 H        -8.4976260375        1.6355356557        4.7114048752
 H        -8.0180882877       -0.1092780475        4.7542358918
 H        -9.2070925891       -6.2757496038        3.0185999617
 H        -8.2464388071       -6.4614422010        1.6811061667
 H        -9.7983852392       -5.7723073441        1.3710742227
 H        -6.4397139717       -4.2031149106        3.8088658918
 H        -6.0510207562       -5.2573225366        2.4562660868
 H        -7.1526534841       -5.7060123100        3.8363235311
 H       -10.2846326833       -0.5374070032       -1.6342975906
 H       -10.4702241420        1.0763629817       -1.9018921490
 H       -10.3238220884        0.8233313424       -0.2502984329
 H        -8.2467192094       -0.9074303103       -3.1707031339
 H        -6.8825933293        0.1050514525       -2.9349453624
 H        -8.3824729648        0.8587112883       -3.5316682728
 Na       -9.5681664935        1.1446680163        1.9562839194
