117

 C        -3.2983682001        3.7927796261        7.8991682224
 C        -3.8322208105        5.2135741533        7.8473076828
 O        -3.0584505613        6.1251981686        7.6827785769
 C        -5.4111648137        5.4208359729        8.0779056432
 C        -5.9614056079        4.7866698055        6.7979857923
 O        -6.2312656734        3.6306769876        6.8520126115
 C        -6.2041470807        5.6010584569        5.5644057776
 C        -6.7838629026        4.7736421587        4.4356172638
 C        -6.9348557893        5.4011202533        3.0568683178
 O        -7.9523511882        6.0692201686        2.8157605524
 C        -5.7827527146        5.0961853458        1.9451219706
 C        -5.8877488286        3.5789543465        1.3926029565
 O        -5.0157031636        2.7492504997        1.5241888053
 C        -7.2560612684        3.0153697201        0.8343167609
 C        -6.9246439385        2.0611045358       -0.3354735517
 C        -8.1413109883        1.1944028799       -0.7192249388
 O        -8.6076203777        1.4087406818       -1.8497253974
 C        -8.6278329932        0.0612056189        0.1891348848
 C        -9.6616914317        0.6958378937        1.2923320739
 O        -9.2710346912        1.2890902377        2.2476993621
 C       -11.1605276074        0.4530938877        0.9545369066
 C       -12.0589938630        1.6027881016        1.4566788507
 C       -11.8307265244        2.8848507035        0.5657536699
 O       -10.7265772534        3.0959286562        0.1758349377
 C       -13.1139564877        3.8759084754        0.3598057017
 C       -13.7398112629        3.1029739703       -0.8745079373
 O       -13.0068904623        2.4466077800       -1.5537779838
 C       -15.1938813016        3.3720406749       -1.1808784771
 C       -15.4288357494        3.6789877379       -2.6570368936
 C       -15.1318266013        5.1446646858       -3.1482369163
 O       -14.6488111251        5.9340824803       -2.3342475907
 C       -15.2877475093        5.4148302038       -4.7484860556
 C       -13.8470601542        5.0927057139       -5.2768651502
 O       -13.6197913037        3.9745333263       -5.7079750282
 C       -12.6682603922        6.0972567646       -5.1372606850
 C       -11.3507725158        5.5330630685       -5.7391302589
 C       -10.7535528878        4.2910412096       -4.9452164635
 O       -10.9091987072        4.3437405708       -3.7723094808
 C       -10.1995736537        3.0016271873       -5.6789634372
 C       -11.2922435563        1.9049384613       -5.3877560645
 O       -11.4325885148        1.4378259819       -4.2191133288
 C       -12.0314128988        1.1916890417       -6.4930294848
 C       -10.0506927306        3.2616335297       -7.1965025755
 C        -8.9456150802        2.6865136262       -4.8850682440
 C       -16.2140554268        4.4879502172       -5.5956182186
 C       -15.6450853093        6.8911648623       -4.9132056436
 C       -14.0613788222        3.9595049143        1.6328653648
 C       -12.6179359994        5.2258256626       -0.1031146398
 C        -9.2682578862       -1.0758906803       -0.7644925666
 C        -7.4424819375       -0.5719541985        1.0018750546
 C        -5.9254764744        6.0453982384        0.6734444411
 C        -4.4331246725        5.2202001281        2.5960750744
 C        -5.9167729674        4.7062682945        9.3052024318
 C        -5.5086238522        6.9014325876        8.2262960750
 H        -2.5782675261        3.8182979755        7.0709406935
 H        -4.2073779156        3.1652915314        7.7160936976
 H        -2.7110021232        3.5135264332        8.7289073395
 H        -5.3066132530        6.1305232951        5.1952386566
 H        -6.8942926942        6.3507458205        5.9018790573
 H        -7.7153608402        4.3321637136        4.8475470895
 H        -6.1188055314        3.8544180823        4.4084546355
 H        -7.9568928425        3.8402974183        0.5730150643
 H        -7.7944213525        2.5388754469        1.6096653828
 H        -6.0258221462        1.4318762144       -0.2056348415
 H        -6.8280365631        2.7436927167       -1.1413817229
 H       -11.4808441825       -0.4445363302        1.4867111377
 H       -11.2227213778        0.3150525135       -0.0957169566
 H       -11.8693536395        1.7699370598        2.4781657746
 H       -13.0862501844        1.1831421322        1.3675392109
 H       -15.4810498483        4.1473926211       -0.5409998043
 H       -15.7653356293        2.5143762973       -0.8648511545
 H       -16.4709031630        3.4375590044       -2.9046081915
 H       -14.8803818159        3.0230092139       -3.3278442670
 H       -12.4430158361        6.3235476330       -4.0398774571
 H       -13.1483625707        6.9188579556       -5.7282051512
 H       -10.5936363917        6.3811363376       -5.7754424582
 H       -11.6280889391        5.3266354816       -6.7424319562
 H       -11.2648964401        0.7195389843       -7.1210751748
 H       -12.4918695869        1.9105794070       -7.1190464112
 H       -12.6401677310        0.3917186588       -6.0025384766
 H        -9.0312965329        3.6672658387       -7.2146091333
 H       -10.7080293235        3.9156939625       -7.7411474033
 H       -10.1495135051        2.4762918699       -7.8785591742
 H        -9.0283511458        2.6418930722       -3.7953405092
 H        -8.1637849578        3.5308015485       -5.1703362561
 H        -8.5903438269        1.7281490958       -5.1132463020
 H       -15.7802803577        3.6138590690       -5.9738897912
 H       -16.7916797494        4.9804636111       -6.3017938543
 H       -16.9519210821        4.1120184743       -4.8326171224
 H       -15.3265571317        7.2438531560       -5.8718939591
 H       -15.1627295383        7.4728720651       -4.1431164286
 H       -16.7495607505        7.0133513533       -4.7677057907
 H       -13.5943105734        4.5551230306        2.4419741598
 H       -14.3337392423        2.9138814370        1.9248269740
 H       -15.0479850588        4.3640964498        1.3353275885
 H       -12.0452280221        5.7225187434        0.6497083565
 H       -13.4777676435        5.8127045938       -0.3750588033
 H       -12.0171987463        5.1037412485       -0.9324246417
 H       -10.0132344016       -1.6073084043       -0.2866277162
 H        -8.3739759788       -1.7417910875       -1.0377713317
 H        -9.6595455093       -0.5721945215       -1.6475427213
 H        -7.2706799686       -0.1112320169        1.9309676801
 H        -6.5325440965       -0.7016596074        0.4596446338
 H        -7.6852969743       -1.6048645199        1.2344290801
 H        -5.4222535747        6.9756472596        0.8284548220
 H        -7.0398829637        6.1835596410        0.6074932558
 H        -5.6860673088        5.5897898135       -0.2832277369
 H        -3.8674567518        4.2664367254        2.6216823522
 H        -4.6129371157        5.5061330185        3.6735396151
 H        -3.8034255003        6.0203524445        2.1851927629
 H        -5.8881106537        3.6570610512        9.1162814543
 H        -6.9584682761        5.0535514260        9.5344419325
 H        -5.3154883012        4.8252893082       10.1724379598
 H        -4.5338743400        7.2882133652        7.9174623809
 H        -5.6968501823        7.1830163506        9.2877268449
 H        -6.2687387802        7.4280139600        7.5751243920
 Na      -10.6262676826        2.5504459406       -2.2656143774
