117

 C        -7.7744700689        2.3183545303       -2.1467449005
 C        -8.6628677091        1.7224201334       -1.1213486762
 O        -9.2398265093        2.3941617569       -0.2783428587
 C        -8.9436166192        0.1381138124       -1.0947107552
 C        -8.2906531372       -0.5611713666        0.1390225412
 O        -8.2597224325       -0.0665736939        1.2381838418
 C        -7.5923818077       -1.7550871398       -0.3819932207
 C        -7.0670106565       -2.7581278514        0.8300906539
 C        -7.9577803070       -4.0415578310        1.0644663705
 O        -8.3074512354       -4.6754164127        0.0846396554
 C        -7.9265296061       -4.6007595199        2.5217637424
 C        -8.4019658663       -3.4291259466        3.3946243643
 O        -7.5735032797       -2.8218158320        4.0783200607
 C        -9.9024347429       -3.2561720652        3.5736551427
 C       -10.4319954878       -2.0931295112        4.4259806038
 C       -10.4528952335       -0.6553219850        3.9814863919
 O       -10.8076684797       -0.2624475699        2.8839271792
 C        -9.9835885763        0.5266497269        5.0007231814
 C       -10.6876211924        1.8806535669        4.4486150989
 O       -10.1019720788        2.9336267634        4.1116100835
 C       -12.2017998731        1.8131796320        4.2055904736
 C       -12.7092803869        3.0471952705        3.4744301868
 C       -12.6507229836        3.0524243966        1.9398297507
 O       -11.9379884439        2.2759828021        1.3273032327
 C       -13.4536925840        4.0364024051        1.1319037112
 C       -12.7277444063        4.2505700307       -0.4011025419
 O       -13.3203501478        4.3099901919       -1.3850841292
 C       -11.1113966664        4.6762366741       -0.3488696584
 C       -10.9475853035        6.2107550026       -0.6863968906
 C       -10.6074224836        6.4933390058       -2.2675001010
 O        -9.8692112021        5.6914663313       -2.7573837470
 C       -11.2054518661        7.6461642861       -3.2074107085
 C       -10.2835413617        8.8990590800       -2.8009412035
 O        -9.9128362636        8.9589791740       -1.6366011936
 C        -9.9574130989        9.9066153310       -4.0018997069
 C        -9.1971231014       11.2511653532       -3.4623000063
 C        -9.7449154350       12.6966320267       -3.7629572159
 O       -10.4721426231       13.1825190308       -2.9114734497
 C        -9.5429031778       13.3973007121       -5.1290932664
 C        -7.8733856498       13.3542181796       -5.4092950893
 O        -7.2058748546       12.3213702734       -5.7099092453
 C        -7.2267362338       14.6668741169       -5.4363301128
 C       -10.1771919679       12.3996557021       -6.0740667903
 C       -10.0619881708       14.8444648773       -5.1060340126
 C       -10.9974176416        7.2118595392       -4.7368469939
 C       -12.6388155511        7.9072438126       -3.0686757953
 C       -14.8306273643        3.1246553753        0.8659421661
 C       -13.8335052958        5.3215797052        2.0530011720
 C       -10.6172757879        0.3867083517        6.4834200801
 C        -8.4533264536        0.6262297354        5.0866458841
 C        -8.9463269375       -5.8131931226        2.6910539693
 C        -6.5202110088       -5.0032591636        3.1172872908
 C       -10.4419307360        0.1033983787       -0.7689659852
 C        -8.6695201999       -0.5556582837       -2.4722884803
 H        -7.2366112419        3.2080311645       -1.7590531080
 H        -8.4695249446        2.7719006752       -2.8317674210
 H        -7.0357966463        1.7616436909       -2.5874709477
 H        -6.9026505128       -1.3447538068       -1.1641746823
 H        -8.0386067805       -2.4259106858       -1.0292483465
 H        -6.9321566222       -2.1239500523        1.7447566524
 H        -6.1612931625       -2.9906609707        0.4725168251
 H        -9.9338947838       -4.0310889373        4.3941888860
 H       -10.4648205048       -3.5288041207        2.6945300387
 H        -9.6121081066       -1.9768107814        5.2675929281
 H       -11.3236610233       -2.2889786871        5.0007801097
 H       -12.7096020742        1.6793505898        5.0772099548
 H       -12.5254955442        0.9932434101        3.5815161578
 H       -12.4054304012        3.9516362080        3.8247187097
 H       -13.7423048619        3.0103975472        3.5813433462
 H       -10.5325464544        4.2202154049       -1.0723859417
 H       -10.7145676419        4.6301933256        0.7432104375
 H       -10.2637278036        6.6266885115       -0.0970006912
 H       -11.8527992393        6.7955520717       -0.4731529128
 H       -10.9912757418       10.2144069750       -4.4975378709
 H        -9.3739218817        9.5645629849       -4.8501052521
 H        -8.1679856748       11.0017246351       -3.6666077131
 H        -9.2081071564       11.0595924096       -2.3938035723
 H        -7.3216620295       15.0845860028       -4.4563353579
 H        -7.7401697152       15.3215192448       -6.1842551328
 H        -6.2089643466       14.5318362714       -5.5668269294
 H        -9.6279761573       12.3863501661       -7.0426550132
 H       -11.2371590390       12.7191224649       -6.1073271934
 H       -10.1688983055       11.4663644435       -5.6561966483
 H        -9.6119983864       15.4317635553       -4.3090555089
 H       -11.0755283245       14.9304561477       -4.6249306167
 H       -10.0645262043       15.2863833481       -6.0347519327
 H        -9.9168660895        7.0981410900       -4.8521215357
 H       -11.2695891389        7.9898693827       -5.4822631709
 H       -11.6073643593        6.3433668106       -4.7326517092
 H       -12.6108549260        8.4557879488       -2.1022899614
 H       -13.2126165700        7.0503042676       -3.0389235586
 H       -13.0618646609        8.5744815044       -3.8196183289
 H       -14.8247498558        2.7982340204       -0.1761671960
 H       -15.6817568406        3.8197367159        0.9514152587
 H       -14.9749416830        2.1716016524        1.3743258991
 H       -14.3975712648        5.0136188211        2.9308753289
 H       -14.3347542660        6.0511567077        1.4045050985
 H       -12.8728194384        5.7581200571        2.4444862403
 H       -10.6388968019        1.3380872375        7.0810092972
 H        -9.8949337813       -0.3774636519        7.0408978391
 H       -11.5681183902       -0.0720492957        6.4954792596
 H        -8.2447857130        1.6383154860        4.8910887001
 H        -8.0657983225       -0.0003939093        4.3027721927
 H        -8.1435062382        0.2749345225        6.0113963793
 H        -8.7096515608       -6.5316677770        3.4624617035
 H        -8.9203265133       -6.3724966648        1.7126669969
 H        -9.9619681835       -5.5028380614        2.7945403456
 H        -5.7734120517       -4.2237868755        2.9917418714
 H        -6.1280024122       -5.9244906269        2.5932050945
 H        -6.3757971654       -5.2011739476        4.1881716166
 H       -10.7921389780       -0.8911463237       -0.5145827781
 H       -11.0546489713        0.7480247856       -1.4391675236
 H       -10.5743129543        0.6001772426        0.0944146668
 H        -9.3130218900       -1.4654443682       -2.4030619991
 H        -7.6404980551       -0.6866613284       -2.7082057224
 H        -9.0492515131        0.0402451993       -3.2794584887
 Na       -9.7841154557        1.6460461950        2.0052731999
