117

 C        -8.1379765169        1.9934850571       -2.4051309337
 C        -8.8310531554        1.5757306748       -1.1486655260
 O        -8.8643618652        2.2797336749       -0.1596013539
 C        -9.3586435815       -0.0151765049       -1.1367862861
 C        -8.4324183126       -0.6668828749       -0.0384648583
 O        -8.3851902146       -0.1429179631        1.1067458297
 C        -7.4625802022       -1.9483996392       -0.2537112991
 C        -6.9829004708       -2.6047601877        1.0351313859
 C        -7.8378289183       -3.8688788077        1.2531692013
 O        -8.4811175725       -4.2895336655        0.3393689012
 C        -7.8060435630       -4.7038716105        2.7476510853
 C        -8.4121171933       -3.4065568552        3.8456231691
 O        -7.6118524329       -2.7837619422        4.4566256541
 C        -9.9119812249       -2.8691046021        3.6371881610
 C       -10.3707978026       -1.9696922877        4.7549560505
 C       -10.5484003987       -0.5709530057        4.1351481112
 O       -10.7462676487       -0.3266166125        2.9624919285
 C       -10.1217670202        0.5596442023        5.0547556168
 C       -10.7227306643        1.9427470353        4.5366057153
 O       -10.0271279371        2.8996669465        4.4454516587
 C       -12.1901854813        1.9628467649        4.3810798833
 C       -12.7727058127        2.9901290683        3.3993328876
 C       -12.6164994106        2.9363998106        1.9000640014
 O       -12.0503578633        2.1001239624        1.2109718922
 C       -13.4918605279        4.0675881015        1.1937970407
 C       -12.8350914649        4.5691551663       -0.2140206754
 O       -13.5420229178        4.5391169033       -1.2124935332
 C       -11.4868317061        5.2834015181       -0.1159874459
 C       -11.2873252601        6.5233712653       -1.0290550600
 C       -10.7552753492        6.3322702858       -2.4900803301
 O        -9.9329682619        5.4155110846       -2.6841757764
 C       -11.0565799863        7.5098039186       -3.4261781547
 C       -10.3295491691        8.9667433236       -2.7180511068
 O        -9.9479935703        8.9333364034       -1.6074028941
 C       -10.3415388908       10.1638733379       -3.6815034560
 C        -9.1287299559       11.1352493560       -3.4217779735
 C        -9.4541940540       12.5659839097       -3.7272789090
 O        -9.9646208036       13.1424015204       -2.7982197961
 C        -9.2068270094       13.2257813665       -5.1344507423
 C        -7.7187737698       13.2855324191       -5.5884679702
 O        -7.0458141595       12.3408109907       -5.6753798542
 C        -7.0917237798       14.6049204503       -6.1730162361
 C        -9.8909241232       12.4063798880       -6.4205269552
 C        -9.9848168623       14.5630767504       -5.0914005012
 C       -10.5093863629        7.1328395527       -4.8930310563
 C       -12.5587837912        7.9087016451       -3.3276079443
 C       -14.8579874087        3.4156957247        0.7329088001
 C       -13.8322824960        5.3650640275        2.0505816697
 C       -10.5620735454        0.3540854543        6.5225817558
 C        -8.4921991373        0.6063120039        4.8877329827
 C        -8.7327691868       -5.9692586573        2.5277297310
 C        -6.3455877751       -5.0151831393        2.8931773522
 C       -10.8183197162       -0.2497068700       -0.8109776048
 C        -9.1090020056       -0.6112781524       -2.5136846988
 H        -7.8900737840        3.0393379589       -2.3996593602
 H        -8.6343892502        1.8534599205       -3.3663178178
 H        -7.1060046778        1.5246512459       -2.2595134575
 H        -6.8084667277       -1.7219901896       -1.1102039275
 H        -7.8818816774       -2.9192031230       -0.8251549265
 H        -7.0590481449       -1.7955341937        1.7411707680
 H        -5.8246860264       -2.7844101239        0.7771044377
 H       -10.5410582290       -3.7435097537        3.4364865285
 H        -9.8610701613       -2.2650512886        2.7042910086
 H        -9.7006552125       -1.8982329598        5.5188178508
 H       -11.2986147127       -2.2695534338        5.3253775866
 H       -12.5465457405        2.3482334302        5.4302748447
 H       -12.6903514632        1.0074014417        4.2594914129
 H       -12.2651755294        4.0047427009        3.5836777732
 H       -13.8848600429        3.2132332951        3.5636074789
 H       -10.6230164975        4.5124741570       -0.3964695839
 H       -11.4523934191        5.5733790412        0.8806745250
 H       -10.3546344653        7.1999331608       -0.6671541208
 H       -12.1536709520        7.2111328824       -0.9594259544
 H       -11.1666106247       10.7698100264       -3.6059090043
 H       -10.4003488145        9.7935406027       -4.7264945168
 H        -8.1774059274       10.6299049103       -3.7284620628
 H        -9.1278738600       11.1104928220       -2.2986622995
 H        -7.1166043969       15.5237183548       -5.5854291626
 H        -7.7430048168       14.8007319411       -7.0392470812
 H        -6.0865642297       14.3540568851       -6.5614588291
 H        -9.2636997600       12.7830397736       -7.2068368549
 H       -10.9478592214       12.6583206359       -6.5468736478
 H        -9.6796427572       11.3216984730       -6.3226564361
 H        -9.6476045994       15.2111529755       -4.3229630218
 H       -11.0255941567       14.5649377538       -4.9085171574
 H        -9.8866628341       15.0639976925       -6.1529810922
 H        -9.4355878363        7.1865781222       -4.9003933019
 H       -10.8941427130        7.8359974384       -5.5768922585
 H       -10.8832994433        6.1015677440       -5.0216854078
 H       -12.8101734443        8.6330942841       -2.5827506778
 H       -12.9812586376        6.8409179526       -3.1675117127
 H       -12.9490931027        8.2037497178       -4.2864577337
 H       -14.7353256655        2.4506745574        0.2238848591
 H       -15.4157319465        4.0999688793        0.1051003977
 H       -15.5278136760        3.1747295989        1.5906623399
 H       -14.5263571771        5.1192695159        2.8809823125
 H       -14.3546331569        6.0268734126        1.3467217516
 H       -12.9534586895        5.8387502183        2.4644261941
 H       -11.3241154370        1.0317565004        6.6406381085
 H        -9.8146255178        0.5287128984        7.2767809616
 H       -11.0010873530       -0.5925482267        6.6983578573
 H        -8.2195183131        1.6760341199        4.7945281911
 H        -8.2611208282       -0.0102671796        4.0184528405
 H        -8.1406307859        0.1151407734        5.8181527343
 H        -8.1990970251       -6.8109205919        2.9288281507
 H        -8.7774445292       -6.1998785606        1.5135787375
 H        -9.7104391872       -5.9642989847        3.0656085908
 H        -5.7780516614       -4.0863789221        3.0689210006
 H        -5.8984191146       -5.6042779642        2.1534870705
 H        -6.0749941791       -5.6231317070        3.7730626476
 H       -10.8470435736       -1.2000154320       -0.2282451312
 H       -11.2999287500       -0.3198951586       -1.7822432847
 H       -11.5183235630        0.3973988082       -0.1731254613
 H        -9.5241812966       -1.5932128448       -2.4985292477
 H        -8.0304683584       -0.5513222660       -2.7379144763
 H        -9.6786107048       -0.0544429908       -3.2698973157
 Na       -9.6583755393        1.6541789261        1.8413172508
