117

 C        -9.2247042713        1.5214663978       -2.7398099575
 C        -9.3539737927        1.0972252626       -1.3418657118
 O        -9.2702181964        1.9043207997       -0.4718197530
 C        -9.5073091426       -0.3191205801       -1.1368616676
 C        -8.5757680228       -0.8518660728        0.0280449445
 O        -8.7366836004       -0.6198196537        1.2211203031
 C        -7.3909169626       -1.8030334516       -0.3423196511
 C        -6.8854503445       -2.7019604360        0.8566507758
 C        -8.0152057295       -3.5204267795        1.5388157803
 O        -8.9701773148       -3.6086082378        0.7482622919
 C        -7.6517091405       -4.3103834009        2.9078859223
 C        -8.3674793057       -3.5940739812        4.0906851503
 O        -7.8949705597       -3.3056601621        5.1845082581
 C        -9.7768756926       -3.0905771433        3.9017688314
 C       -10.1309724535       -1.9444319760        4.9157251187
 C       -10.4224163066       -0.5788374083        4.3055180976
 O       -10.7014509403       -0.4186249104        3.1224360229
 C       -10.0438645837        0.7396380159        5.1079884326
 C       -10.6938356688        1.9017598136        4.2904359923
 O        -9.9466656599        2.6290261895        3.5912609811
 C       -12.1757678010        2.0900526941        4.3437839660
 C       -12.6934106656        3.4106238855        3.6856478747
 C       -12.6194564945        3.5763442753        2.1724478730
 O       -11.6986038981        3.0683608433        1.5082883770
 C       -13.7929029419        4.4394009277        1.4102152434
 C       -13.0581168667        4.8812140475        0.0056556851
 O       -13.7090936006        4.6330545578       -0.9593058120
 C       -11.6544460109        5.6465877576        0.1323274670
 C       -11.5449691031        6.8272153627       -0.8792431049
 C       -11.1820112009        6.4885226281       -2.3412245349
 O       -10.9320392422        5.3238360672       -2.5028835295
 C       -10.7607208291        7.6476152304       -3.4662515823
 C       -10.3610801301        8.9199124265       -2.7396908424
 O        -9.5664172049        8.7943063028       -1.8033470269
 C       -10.5795477470       10.4090424325       -3.4061717963
 C        -9.1663138882       10.7137828902       -4.1637916859
 C        -8.8918776580       12.2235311072       -4.1156362309
 O        -8.6143158260       12.9467186888       -3.1689880042
 C        -8.9824231786       12.9749340095       -5.5086557004
 C        -7.4029388469       12.9872559056       -5.8800424928
 O        -6.6058606028       12.6212538949       -4.9807365984
 C        -6.9601447970       13.6558153971       -7.2791192517
 C        -9.7960962813       12.2700966711       -6.6980604613
 C        -9.5314895212       14.3876975038       -5.3385936762
 C        -9.4650388880        7.1185962294       -4.2589167308
 C       -11.8745256783        7.7699798695       -4.6225906264
 C       -14.9134955777        3.3648666723        1.2294471669
 C       -14.4217435394        5.6763149997        2.1814528289
 C       -10.7863870833        0.6094168528        6.4688657127
 C        -8.4703548517        0.9910570715        5.1722394421
 C        -8.2175370283       -5.8255258922        2.7819897516
 C        -6.1341165472       -4.2607398562        3.2219177759
 C       -11.0760623099       -0.4789654953       -0.8482557298
 C        -9.2289852546       -1.0603893445       -2.4860531351
 H        -8.9483315293        2.6363110787       -2.6657158595
 H       -10.1578911488        1.4881038550       -3.3307953725
 H        -8.4663925271        1.0297315203       -3.3301079736
 H        -6.5700925044       -1.3680792414       -0.9801293364
 H        -7.6282936705       -2.4299898230       -1.1065754049
 H        -6.3216846306       -1.9264390040        1.6329933766
 H        -6.1969281486       -3.3144255071        0.3150038826
 H       -10.4896864661       -3.9514492187        4.1102908190
 H       -10.0361060931       -2.9768065592        2.8873481710
 H        -9.2904205422       -1.6577450787        5.6257405815
 H       -10.8175705366       -2.1842523991        5.7265646944
 H       -12.5724883016        2.2251631464        5.3774548817
 H       -12.7201310315        1.1784678189        3.8584506450
 H       -12.2400762931        4.3605415239        4.2165077518
 H       -13.8500186427        3.4655912080        3.7903252858
 H       -10.8446738358        4.9741410727       -0.1501442657
 H       -11.4882814354        5.9609734698        1.2685003354
 H       -10.6238857167        7.2871728855       -0.5417437564
 H       -12.4166697687        7.6546217022       -0.8067435004
 H       -10.6180406683       11.1574696945       -2.5393538794
 H       -11.4507875881       10.4793470125       -3.9163532198
 H        -9.2171523254       10.3309591785       -5.2230123110
 H        -8.4023090501       10.2273586213       -3.4987898441
 H        -6.6150050246       14.6623082754       -6.9825465425
 H        -7.7993904208       13.7077229686       -7.9767370001
 H        -6.2188914634       13.0039884921       -7.7763240232
 H        -9.6688310609       12.8682928676       -7.6359169807
 H       -10.8548591630       12.5058176931       -6.3898894256
 H        -9.6342823493       11.2432725294       -6.8483572805
 H        -8.9630866692       15.0258786731       -4.6326229531
 H       -10.6041354959       14.1351458540       -5.0387075807
 H        -9.6515083226       15.0316320738       -6.1065068673
 H        -8.6765851642        7.0720112881       -3.5497386859
 H        -9.4287932257        7.7169728788       -5.1713697483
 H        -9.6035348418        6.0814703140       -4.4640955447
 H       -12.7853912849        7.8727504070       -3.9789112557
 H       -11.9673704224        6.8695171425       -5.1417826989
 H       -11.7102187326        8.6243250186       -5.3169692262
 H       -14.5381852118        2.7674862169        0.4020714646
 H       -15.8851064495        3.6955490645        0.8503750919
 H       -15.1728787456        2.8334097091        2.1415016198
 H       -14.7529929137        5.5393401572        3.1923619367
 H       -15.3168725405        6.0994469945        1.7065401082
 H       -13.5588171788        6.3659553822        2.0414176457
 H       -11.7654042139        0.1363811839        6.4368841204
 H       -10.9327584615        1.5264026646        6.9369578871
 H       -10.1822434366       -0.0722344989        7.1259626476
 H        -8.3215581869        1.4477867221        6.1410822890
 H        -8.2282295145        1.7014209127        4.3333669989
 H        -7.9558438687        0.0539012222        5.1110119954
 H        -9.2605631199       -5.9307870908        2.7837525941
 H        -7.6538934715       -6.5934541826        3.3678367818
 H        -7.9365339266       -6.0059626964        1.7910225622
 H        -5.6539490279       -3.3240958646        3.2623400312
 H        -5.5305095563       -4.6103361583        2.3876190325
 H        -5.7909155573       -4.8424457714        4.0428206606
 H       -11.7530648225       -1.3463627099       -0.9565750622
 H       -11.6935155896        0.2690610278       -1.4726187869
 H       -11.1220170577       -0.2772607901        0.2300018316
 H        -9.2924091227       -2.1657274307       -2.2731951645
 H        -8.2612910367       -0.8762459842       -2.8968757192
 H        -9.9931570874       -0.7612529575       -3.1614268173
 Na      -10.0470357150        1.5060656818        1.5089479476
