117

 C        -3.2876897485        3.8795615143        8.0150346143
 C        -3.6869911013        5.3319295290        7.8052994638
 O        -2.9787401041        6.2941451017        7.6380633236
 C        -5.2160696247        5.6076881592        7.9608161464
 C        -6.0422140271        4.8717040694        6.7485438693
 O        -6.2363030153        3.7052937958        6.7105916973
 C        -6.3883034684        5.7215670005        5.4410427485
 C        -6.7560472077        4.7263322902        4.2781233240
 C        -6.9311536908        5.3029339659        2.8826165688
 O        -7.9050405439        5.9511744206        2.5344410860
 C        -5.8129703490        5.0481013638        1.9815727463
 C        -5.9568057914        3.5643431133        1.4480182626
 O        -5.0555442936        2.7602145927        1.5690386127
 C        -7.2686336756        3.1431910957        0.7158437190
 C        -6.9947309766        2.1072268421       -0.3696516487
 C        -8.1934559636        1.2408903958       -0.6987563321
 O        -8.9660766747        1.4002238236       -1.6426049221
 C        -8.5954803690       -0.0173271308        0.2133675605
 C        -9.6807269373        0.6195740149        1.1839823574
 O        -9.3194604706        1.2158882077        2.1799058565
 C       -11.2585787975        0.4648058051        1.0079754472
 C       -11.9201510654        1.6829458493        1.6761589840
 C       -11.7756050070        2.8755530647        0.7711789163
 O       -10.7415189431        2.9959507388        0.1167930521
 C       -12.9714570562        3.7683467139        0.3905601891
 C       -13.7758421003        3.1122997085       -0.8364529559
 O       -13.1930020532        2.3871284003       -1.6437795045
 C       -15.2939664074        3.3237830676       -1.1486449286
 C       -15.4441036670        3.5438222051       -2.6723912421
 C       -15.0474632607        4.9576667089       -3.0378400555
 O       -14.7439039053        5.7840564791       -2.2353101146
 C       -15.1449047650        5.3962070181       -4.6714002980
 C       -13.7567807372        5.0080210613       -5.2565064246
 O       -13.5019253546        3.8469663240       -5.5347245470
 C       -12.6601516076        6.0935236244       -5.1985863114
 C       -11.3517191895        5.5344554759       -5.7656264655
 C       -10.9394010168        4.3116075757       -5.0121161734
 O       -10.7727702930        4.3438042971       -3.8184916617
 C       -10.2645268759        3.0767277937       -5.7501182904
 C       -11.2814169911        1.8745842439       -5.3387543982
 O       -11.4998465553        1.6688289318       -4.1451957285
 C       -11.9382832307        1.0181898720       -6.4581177809
 C        -9.8894193931        3.1579188922       -7.2073044941
 C        -8.9477274172        2.7043299533       -5.0135894656
 C       -16.1455466779        4.4865327029       -5.4997177355
 C       -15.5580635640        6.9423929398       -4.8575016312
 C       -13.8274679848        4.0602375819        1.6493556782
 C       -12.4735554202        5.1369960258       -0.1173539495
 C        -9.2123430216       -1.0576010519       -0.6937826670
 C        -7.4085129937       -0.6024749115        1.0002075946
 C        -5.9430226696        6.0153063503        0.7045814932
 C        -4.3908453456        5.3307655001        2.6181985142
 C        -5.7214889376        4.7769929585        9.2430986134
 C        -5.6776336586        7.1165778841        8.1752029007
 H        -2.6811123626        3.4748851596        7.2047129652
 H        -4.2213200905        3.4292326342        8.1489250271
 H        -2.6069349807        3.7929224622        8.8417203948
 H        -5.5127112228        6.2936537169        5.0909109718
 H        -7.1994623274        6.4298489466        5.5716405466
 H        -7.6909006751        4.1484393501        4.6766608694
 H        -6.0006808429        3.8678512964        4.3359071592
 H        -7.8017322189        4.0797161318        0.3974288352
 H        -8.0147360510        2.7485724815        1.4596088886
 H        -6.3512040441        1.3511558884       -0.0042957805
 H        -6.5331932832        2.6348605341       -1.2216234586
 H       -11.5684034543       -0.4049163890        1.5133945792
 H       -11.5119668924        0.4210655310       -0.0364965935
 H       -11.5345254205        1.8318165604        2.6749988530
 H       -13.0288651528        1.4008959128        1.7672910633
 H       -15.7742691849        4.0487419704       -0.5941629154
 H       -15.7139079235        2.3711364526       -0.8826122546
 H       -16.5166872097        3.5379319177       -2.8457235768
 H       -15.0967371110        2.8466708019       -3.3818508191
 H       -12.4763592845        6.2762504057       -4.1056693647
 H       -13.1586551337        6.9216890188       -5.7367783280
 H       -10.5490651876        6.3020603830       -5.6785667727
 H       -11.5197208977        5.3530253466       -6.8702977547
 H       -11.3764276637        0.9110728322       -7.3493885694
 H       -12.7322614081        1.7744641947       -6.7463340876
 H       -12.2184376553        0.0781452227       -6.0918670080
 H        -8.9844745691        3.7882666703       -7.2436430338
 H       -10.5090641095        3.2693256238       -8.0412013938
 H        -9.5177656354        2.1429925722       -7.4813857199
 H        -8.9338908615        2.6031016036       -3.9785646104
 H        -8.2294626134        3.4488183712       -5.2965722352
 H        -8.6264622317        1.6981342960       -5.3900245652
 H       -15.7619091314        3.5438710059       -5.7930418978
 H       -16.5288268908        5.0140777995       -6.3291994524
 H       -17.0117448916        4.2304500658       -4.9242871348
 H       -15.4680272864        7.1807415074       -5.9589513798
 H       -14.9440484039        7.6035042380       -4.2969550067
 H       -16.6248483783        7.0878756953       -4.4576928415
 H       -13.3150953070        4.7006536254        2.3494741390
 H       -14.1640637091        3.1048949250        2.0462144224
 H       -14.7357670330        4.5363747108        1.3252992206
 H       -12.2017354592        5.7411453028        0.7404112671
 H       -13.3312917552        5.6124634674       -0.5273740311
 H       -11.6772421200        5.0884707367       -0.8262088082
 H       -10.1252086945       -1.5808156214       -0.2154372178
 H        -8.4581916275       -1.8003914227       -0.8293632634
 H        -9.4206628790       -0.5604282518       -1.6419786809
 H        -7.1898412853        0.0518192013        1.8606941894
 H        -6.4788586180       -0.7720976414        0.3572377332
 H        -7.5202408150       -1.5471332867        1.3919697297
 H        -5.4434529456        6.9113927852        1.1482736203
 H        -6.9471941652        6.2636479352        0.5114418476
 H        -5.5383039297        5.6738881279       -0.2431679613
 H        -3.8242799317        4.4316932194        2.8454458619
 H        -4.4901533736        5.9125509309        3.4888494784
 H        -3.7947243935        5.9746933249        1.9723053979
 H        -5.4543006829        3.7599046886        9.0445267428
 H        -6.7608689621        4.8551921527        9.4651132348
 H        -5.1796933480        4.9735287544       10.1756065265
 H        -5.2595676436        7.8771594536        7.5016124717
 H        -5.3696486746        7.3231153133        9.2121481660
 H        -6.7456375573        7.1788461093        8.2174890265
 Na      -10.9417911612        2.5109477040       -2.1817385995
