117

 C        -9.3700592040        1.7059651587       -2.9235959412
 C        -9.3819362099        1.1263560261       -1.4515017667
 O        -9.3361489961        1.9039599980       -0.4998847941
 C        -9.5983042754       -0.5147867226       -1.1492375957
 C        -8.6920493535       -1.0285002045        0.0646110328
 O        -8.8435554994       -0.4857997878        1.1308732430
 C        -7.5254734937       -1.9350373521       -0.3075947244
 C        -6.8696788270       -2.5851089437        0.8171203180
 C        -7.9429899657       -3.5087529745        1.4997391871
 O        -9.0990787532       -3.5772810938        1.1354632997
 C        -7.4988929900       -4.2080500055        2.8170361076
 C        -8.3499835700       -3.5419975048        4.2119374855
 O        -7.7648052252       -3.4594875056        5.2213554546
 C        -9.8519927616       -3.0920879509        4.0625546413
 C       -10.0767495300       -1.9324139698        4.9274302247
 C       -10.3018645040       -0.5064637414        4.2013394932
 O       -10.7797847720       -0.5221292699        3.0586441277
 C       -10.1370121713        0.7605722335        5.0474416738
 C       -10.6925065242        1.9900926376        4.1611409233
 O        -9.9259868946        2.6301003463        3.4152887370
 C       -12.2072327670        2.2658543949        4.2998958327
 C       -12.7854480742        3.5779120653        3.8039163104
 C       -12.6333983741        3.6670204941        2.2440783457
 O       -11.6295045679        3.3399094804        1.6587667359
 C       -13.6909439619        4.3060724614        1.3972166650
 C       -13.1976787975        4.8952893117        0.0558503633
 O       -13.7234377999        4.7095005151       -1.0779265634
 C       -11.8972380997        5.7555154982        0.1011045381
 C       -11.5820442012        6.9349695258       -0.8614942550
 C       -11.1488519886        6.4122240258       -2.3048782910
 O       -11.2488124778        5.2528259856       -2.5848390351
 C       -10.6035064655        7.4809385765       -3.4278428890
 C       -10.1695414802        8.8798342408       -2.7849133357
 O        -9.6152724389        8.9482231965       -1.6596744263
 C       -10.3358572078       10.3398728506       -3.2507136271
 C        -9.1929218708       10.7102857132       -4.1439844974
 C        -8.9974969990       12.2369613859       -4.3016781229
 O        -8.5283821631       12.7988723881       -3.3310772988
 C        -8.9501669117       12.9974069768       -5.5843488416
 C        -7.3635288348       12.9617404902       -5.8910825678
 O        -6.4417784141       12.7216343525       -5.1527831923
 C        -7.0120730182       13.3473287987       -7.4000351689
 C        -9.6455750863       12.2080267346       -6.8236530366
 C        -9.3752562302       14.4014888803       -5.2333000887
 C        -9.3245435662        7.0815478476       -4.2221851275
 C       -11.7100742510        7.7026891521       -4.5928328673
 C       -15.0020934747        3.3587353858        1.3861411032
 C       -14.1930459073        5.5554306319        2.2736450433
 C       -10.7842189361        0.8278601797        6.4151092301
 C        -8.6159390129        0.8628158482        5.4016179778
 C        -8.2227240726       -5.5745234494        2.6353921906
 C        -6.0974137594       -4.1405137127        3.3521778008
 C       -11.0446982637       -0.7702239097       -0.6934442327
 C        -9.2561667377       -1.2424576077       -2.5282097914
 H        -9.4112584064        2.7954611834       -2.9190278083
 H       -10.3910751359        1.3966859835       -3.3549273441
 H        -8.6381700980        1.3189669441       -3.6660887460
 H        -6.9724249437       -1.3047078867       -0.8833220058
 H        -7.6312169183       -2.6854756383       -1.1016221079
 H        -6.6619452266       -1.9128576080        1.6287853231
 H        -5.9882698504       -3.1444361187        0.4324689128
 H       -10.5028177100       -3.9675439704        4.2250620383
 H       -10.1880861808       -2.8958225702        3.0214002948
 H        -9.3582942605       -1.8599961993        5.8880195123
 H       -11.0036008059       -1.9124775975        5.5211376316
 H       -12.4331032387        2.3799141411        5.3848728264
 H       -12.8543367247        1.3722327491        3.8876412162
 H       -12.1174847855        4.4419055762        4.2390837228
 H       -13.8532199857        3.7319062664        4.0949823728
 H       -11.0919238602        5.0085158260        0.0502883936
 H       -11.8499626716        6.1877772026        1.1905792734
 H       -10.8233095990        7.4728223306       -0.3478054355
 H       -12.4443917076        7.5606146937       -0.9539841880
 H       -10.4753583635       10.9753343778       -2.3652602596
 H       -11.3064901580       10.2759283464       -3.8718205069
 H        -9.4275649539       10.1274469010       -5.0677252105
 H        -8.2484744722       10.4668101591       -3.6727392167
 H        -6.3991004911       14.2660336470       -7.0993979136
 H        -7.7212296351       13.5707879114       -8.1961694054
 H        -6.3132177051       12.4618322075       -7.6786150174
 H        -9.2589598119       12.5240541576       -7.7863617231
 H       -10.6323785898       12.5130694716       -6.8489420672
 H        -9.6175055179       11.0593484602       -6.7596187397
 H        -8.8976942091       14.7993099775       -4.3144002018
 H       -10.4485172004       14.3705942481       -5.2179428281
 H        -9.0742080219       15.2299941300       -5.8803459909
 H        -8.5107691471        7.3526011982       -3.5670399916
 H        -9.3884001688        7.2981572231       -5.2847382232
 H        -9.2752244095        6.0313481666       -4.0643208687
 H       -12.4943173986        8.3049313211       -4.0668388788
 H       -12.2083108320        6.8026593135       -4.9283245180
 H       -11.2143633785        8.2876470926       -5.4193067980
 H       -15.2155118568        3.0884642088        0.3663471518
 H       -15.8881578867        3.9660730231        1.6060985161
 H       -15.0841002339        2.5697873528        2.0941500420
 H       -14.3406690250        5.3207914885        3.3367281682
 H       -15.1984903693        5.8177449282        1.9787395032
 H       -13.5848008857        6.4257547836        2.1240894288
 H       -11.9326738593        0.7959520891        6.5161464879
 H       -10.4575483887        1.7211957347        6.9059378852
 H       -10.4512964523       -0.1292615161        7.0198206067
 H        -8.5450709847        1.6274009933        6.2147421672
 H        -8.1006932543        1.1573619437        4.4903772863
 H        -8.3028618095       -0.1423556283        5.8203485311
 H        -9.0559656106       -5.4660199289        1.8866521755
 H        -8.5317723176       -6.0297403976        3.5824484276
 H        -7.5129103370       -6.3006240613        2.2170543885
 H        -5.7653670261       -3.1877528342        3.6991198425
 H        -5.3258214657       -4.2125722209        2.5773001161
 H        -5.8224474746       -4.8295162446        4.0812488420
 H       -11.5030537073       -1.7743877191       -0.6237164591
 H       -11.7397343901       -0.4169946480       -1.4004124544
 H       -11.1948264605       -0.3610235378        0.4075705408
 H        -9.1988247182       -2.3039104162       -2.3770983813
 H        -8.2750131193       -0.8879848458       -2.8616986041
 H        -9.9684014824       -0.9379907469       -3.3069423747
 Na      -10.0809377601        1.4439369524        1.4077821541
