117

 C        -9.5806112616        1.6991138206       -2.8927821146
 C        -9.5323627958        1.0526449199       -1.5700768740
 O        -9.3331356454        1.8737252312       -0.6626603704
 C        -9.6880960845       -0.4860006135       -1.2762437153
 C        -8.6334081840       -0.8534673118       -0.1599517347
 O        -8.8434695440       -0.4977545935        0.9815239638
 C        -7.5914730684       -1.9412412175       -0.3784112413
 C        -6.9324655691       -2.4428399262        0.9225612354
 C        -7.9317308108       -3.2590588348        1.7518735814
 O        -9.0609990345       -3.4126277175        1.3505990846
 C        -7.5685359194       -4.1270498262        2.9720884685
 C        -8.3622303365       -3.5110778907        4.1727332710
 O        -7.6951633366       -3.5936442316        5.1880801143
 C        -9.8069395029       -3.0433668819        4.1402085355
 C       -10.2037424990       -1.8819746201        4.9699319046
 C       -10.4599603707       -0.4975261888        4.1936484818
 O       -10.7469960112       -0.5651477921        3.0383822440
 C       -10.1498485840        0.8299740916        5.0835606961
 C       -10.5876735369        2.0425979087        4.2168306200
 O        -9.9175141270        2.5761590080        3.4078768057
 C       -12.0990437318        2.3755008605        4.3590219735
 C       -12.6930243337        3.6337377591        3.7776455550
 C       -12.5595603577        3.7850314671        2.2062791882
 O       -11.5592146795        3.4263746158        1.6833185659
 C       -13.8286451383        4.4800377457        1.4803564372
 C       -13.3438080328        5.0230030041       -0.0278253922
 O       -13.8287246973        4.7075519780       -1.0458214194
 C       -11.9677100489        5.8397548693        0.0622677669
 C       -11.6846201452        6.9227184861       -0.9907624176
 C       -11.1672926210        6.4240949992       -2.3008495824
 O       -11.4019624675        5.3099557916       -2.7797523760
 C       -10.4647461848        7.5473423033       -3.2436081506
 C       -10.1530316269        8.8616099807       -2.5337423927
 O        -9.6089741357        8.6960281327       -1.4668448915
 C       -10.3807461793       10.2657068590       -3.3640774567
 C        -9.1586508820       10.5066268692       -4.2411612165
 C        -8.7952656892       12.1363778085       -4.2782220770
 O        -8.5922912472       12.6879145181       -3.2451887135
 C        -8.8097993200       12.9615834160       -5.7221846334
 C        -7.1758555884       13.0353884716       -6.1863748201
 O        -6.5013567851       12.7886539094       -5.2511408842
 C        -6.8227980222       13.2106660747       -7.5924649741
 C        -9.6463898749       12.3059571595       -6.7764627329
 C        -9.2563617007       14.3960571504       -5.4463978642
 C        -9.1638588514        6.8706730457       -4.0069177618
 C       -11.5843347188        7.7210454128       -4.3117010654
 C       -14.9746643751        3.3783120280        1.3355125764
 C       -14.1406832574        5.7570596377        2.3257019234
 C       -10.8873858550        0.7995450619        6.4413503206
 C        -8.6204400249        0.9030541275        5.4006127413
 C        -8.0754978671       -5.6070810969        2.7808615897
 C        -6.1179919229       -4.1442115933        3.2761757462
 C       -11.0160209848       -0.9391518857       -0.7165260864
 C        -9.4107678798       -1.4348488877       -2.5175185703
 H        -9.7337383181        2.7410595808       -2.7475727499
 H       -10.3273998746        1.3149278920       -3.5895335693
 H        -8.6078940550        1.4791488635       -3.4168922023
 H        -6.9816361382       -1.5191568720       -1.1479999460
 H        -7.8963241884       -2.8748906077       -1.0147082607
 H        -6.5698375661       -1.7004794383        1.5400545049
 H        -6.1318383099       -3.2390118828        0.6959628305
 H       -10.2899793331       -3.9557897891        4.4084974220
 H       -10.3002502545       -2.9479124082        3.1272716407
 H        -9.5550173286       -1.6610943424        5.7933901007
 H       -11.1418147380       -1.9591649611        5.5948058155
 H       -12.5238082366        2.3121786789        5.3569391051
 H       -12.5617251653        1.6069801534        3.7894184055
 H       -12.1787684416        4.4701274919        4.1233499288
 H       -13.7313901975        3.7176686328        4.0543085115
 H       -11.1696357236        5.0603037075        0.2775292102
 H       -11.9875819461        6.3748663582        0.9298936288
 H       -11.0933914240        7.6966077852       -0.5077914233
 H       -12.5856228194        7.3047451184       -1.2135378950
 H       -10.4235962392       11.0895406529       -2.6482975868
 H       -11.4061119495       10.1336544826       -3.9429454786
 H        -9.2673691928       10.0638445732       -5.2332204215
 H        -8.2669851141       10.1134090881       -3.7452805550
 H        -5.9692881066       13.9001509277       -7.6227895294
 H        -7.7229366377       13.7075905905       -8.1054760115
 H        -6.6691223124       12.1902227265       -7.9365151895
 H        -9.3744682122       12.6451872616       -7.7659480546
 H       -10.6987145436       12.5716982594       -6.6911581899
 H        -9.5611902958       11.1852666239       -6.7956708701
 H        -8.8764638815       14.7801140391       -4.5505125110
 H       -10.2686061465       14.6381981563       -5.6044353833
 H        -8.5727814290       15.0999077082       -6.0992117544
 H        -8.2937491130        7.1390298151       -3.4291659603
 H        -9.2197060066        6.9665881685       -5.0912000683
 H        -9.2186504284        5.7713737854       -3.7690281221
 H       -12.3963692650        8.3680052312       -4.0541611023
 H       -12.0450933741        6.6591504231       -4.4096241324
 H       -11.0759327133        7.9668362226       -5.2369266137
 H       -15.2884970374        3.3305730325        0.3001737170
 H       -15.8674707077        3.5110545473        1.9102660704
 H       -14.6123479074        2.4179655863        1.7087934625
 H       -14.5121955173        5.4756713381        3.3304703521
 H       -14.9566663791        6.3398770934        1.8756164511
 H       -13.3079806916        6.4025806632        2.4398121099
 H       -11.9853048043        0.6622623284        6.3122018052
 H       -10.7473159752        1.7987976152        7.1011381726
 H       -10.6204055428       -0.0577106776        6.9881065724
 H        -8.3482389925        1.9126162190        5.7726924645
 H        -8.0753937093        0.5917036760        4.5176031297
 H        -8.5370612137        0.1744064151        6.2506003002
 H        -8.4475006470       -5.7508494848        1.7239252126
 H        -8.8720694841       -5.9047931678        3.4643363290
 H        -7.2603471623       -6.3793547777        3.0437904956
 H        -5.5709856937       -3.2799951203        3.6635702191
 H        -5.5526212556       -4.2984887155        2.3861424167
 H        -5.7620822410       -4.9048952317        4.0050257295
 H       -10.9384137231       -2.0047025898       -0.5398914653
 H       -11.7745277315       -1.1367720050       -1.4595256080
 H       -11.4028320951       -0.5682226153        0.1981336982
 H        -9.6601152237       -2.4217783492       -2.2445887562
 H        -8.3390488785       -1.3791844942       -2.8054909971
 H        -9.9552176738       -1.0355058927       -3.4017398095
 Na      -10.1768239661        1.3491621157        1.5026016527
