117

 C        -9.7899678642        1.5554208418       -3.0790608653
 C        -9.6640326582        1.0417529229       -1.6051661580
 O        -9.4467601715        1.6848959063       -0.6209031902
 C        -9.6906205795       -0.6214106703       -1.3980928133
 C        -8.6247935127       -0.8701623574       -0.2560284498
 O        -8.7400564340       -0.3634111618        0.8720969800
 C        -7.5377093957       -1.9497276133       -0.3844827335
 C        -6.9435631892       -2.3191238596        0.9604901534
 C        -8.0343346890       -3.2141162732        1.6946414400
 O        -9.2025255413       -3.1073443798        1.3369450261
 C        -7.5353240219       -4.1515414326        3.0016202933
 C        -8.2932351375       -3.5463852695        4.3594066259
 O        -7.8046090682       -3.4765207626        5.4961550093
 C        -9.7973716738       -3.0805787033        4.1893538602
 C       -10.2807305926       -1.8577553432        5.0726434252
 C       -10.4095064817       -0.5379176104        4.3366414825
 O       -10.7178085586       -0.4226850301        3.1574006767
 C       -10.1854846902        0.7744693729        5.1320532017
 C       -10.6242254334        2.0252837415        4.2404046731
 O        -9.7485258603        2.5356694432        3.5607448450
 C       -12.1235030496        2.4336413408        4.3513710152
 C       -12.5963519384        3.7223422686        3.7057302118
 C       -12.5388027497        3.9431938777        2.1816313433
 O       -11.6534780815        3.4178232002        1.4493289719
 C       -13.7524360803        4.6296819139        1.5479629036
 C       -13.2415545542        5.0138412796        0.0101572494
 O       -13.9968080263        4.7418568472       -0.8527180558
 C       -12.0575462654        5.8682782388        0.0576060375
 C       -11.9594021295        6.9339602499       -1.0649688589
 C       -11.2303825795        6.4319404870       -2.3554238558
 O       -11.4010446270        5.3384644018       -2.8717410609
 C       -10.4371092560        7.4381932729       -3.2540725541
 C        -9.9627916154        8.7417920062       -2.4798853768
 O        -9.5943004495        8.8140397609       -1.3470890429
 C       -10.1868683555       10.0158666149       -3.2515612253
 C        -9.0329237978       10.4598965964       -4.2746258610
 C        -8.8033762537       11.9943465117       -4.3267096289
 O        -8.7045211566       12.5861385239       -3.2777573616
 C        -8.6906869676       12.8177785670       -5.7758903072
 C        -7.1661920800       12.8466378701       -6.2040270295
 O        -6.2812711387       12.8948518167       -5.4034365643
 C        -6.6984082027       13.1164089022       -7.7796360351
 C        -9.7146120792       12.3478909926       -6.7693620606
 C        -9.0974841884       14.4153196912       -5.6484582967
 C        -9.1398513192        6.7236839591       -3.6460018118
 C       -11.5827400457        7.7420202070       -4.3350364416
 C       -14.7772298900        3.6278664540        1.2974932584
 C       -14.2840585847        5.8826041160        2.2700581414
 C       -10.9945296639        0.6303398023        6.4697925934
 C        -8.5958754987        0.9455594969        5.2795146056
 C        -7.9692135006       -5.6433927513        2.8983894098
 C        -5.9540386669       -4.1461081491        3.1304009650
 C       -11.0752508371       -0.9878250955       -0.7664717251
 C        -9.5119087008       -1.4120048735       -2.6785468355
 H       -10.1592283805        2.5982926248       -3.2116041899
 H       -10.2706762770        0.8869101715       -3.7244488782
 H        -8.7920860415        1.4434474465       -3.4356177339
 H        -6.8387772610       -1.7368401397       -1.3631200035
 H        -8.0013080076       -2.8473588650       -0.8310543253
 H        -6.9039008268       -1.4206673370        1.7644043984
 H        -6.0085712870       -2.9503264828        1.0154534460
 H       -10.3734433274       -4.0050197876        4.3191625832
 H       -10.1220837512       -2.8871345103        3.1883361488
 H        -9.6500030941       -1.6024470160        5.8176904685
 H       -11.2109348596       -1.9299319176        5.6519654151
 H       -12.3470485177        2.4859039585        5.3871193490
 H       -12.6948960283        1.6706038265        4.0106736680
 H       -12.0678918786        4.5031631502        4.1261896619
 H       -13.6383743005        3.8784714185        3.9191663640
 H       -11.2866325551        5.1123778034       -0.0717760682
 H       -11.7846439427        6.2861627161        1.0016091722
 H       -11.2924036466        7.6949449508       -0.6432942002
 H       -12.9733743995        7.4346161300       -1.3346952913
 H       -10.0451752236       10.7392691534       -2.3773269578
 H       -11.1414026997        9.9782654183       -3.6639883181
 H        -9.2803808604       10.2901510377       -5.3254618944
 H        -8.0127359267       10.0445001329       -4.0746338384
 H        -5.6632388883       13.2980006371       -7.7001764827
 H        -7.2054547636       14.0375035015       -8.1030890335
 H        -6.9822679868       12.2667405422       -8.3117940048
 H        -9.8061383729       12.9956194693       -7.6649293064
 H       -10.7608907393       12.2966460866       -6.2915604542
 H        -9.5107872286       11.3892692785       -7.1576889455
 H        -8.7514187265       14.8980152276       -4.7512838307
 H       -10.1842864291       14.6334543869       -5.8029402854
 H        -8.5125068780       14.9957955439       -6.2933508604
 H        -8.4584981731        6.9917743392       -2.8412764593
 H        -8.9163381298        7.1346773079       -4.6580402618
 H        -9.1095020265        5.6073502452       -3.7450792115
 H       -12.4553912397        8.1399790559       -3.8387841765
 H       -11.8886373935        6.7601479229       -4.6795048979
 H       -11.2036251068        8.3396035421       -5.1294685420
 H       -15.3880348164        3.8128803491        0.4209112000
 H       -15.4328778482        3.4524911741        2.1287363386
 H       -14.2424502021        2.6601095993        1.2728191216
 H       -15.0798566669        5.5585695607        2.9271001755
 H       -14.6857242159        6.6638547522        1.5907593244
 H       -13.5488216721        6.3751257871        2.9536850449
 H       -11.9391361059        0.1916236105        6.2568368973
 H       -11.2051530060        1.5657122426        6.9469017230
 H       -10.5367376133       -0.0175150862        7.1742610580
 H        -8.2886082210        1.9641770106        5.1467037665
 H        -8.1390519301        0.2809045110        4.5197068537
 H        -8.3878704667        0.6231104511        6.2525938951
 H        -7.8614790368       -6.0863691820        1.9194703636
 H        -9.0853430457       -5.7717293482        3.1622822741
 H        -7.4841706572       -6.2272402796        3.6979547204
 H        -5.4498533163       -3.2063295442        3.3762240621
 H        -5.2216644182       -4.5882995748        2.4345280168
 H        -5.7581142348       -4.6053149952        4.1329069199
 H       -11.0241071120       -1.9097908509       -0.2566029268
 H       -11.8675189399       -1.4081771721       -1.4211972179
 H       -11.4803596851       -0.3247591958       -0.1023943699
 H        -9.9458217241       -2.4137214157       -2.4558734834
 H        -8.5305407114       -1.5288278235       -3.1214694032
 H       -10.1171195461       -0.8779160918       -3.3829391668
 Na      -10.2708280535        1.2836004626        1.5933718375
