117

 C       -10.3636652300        1.1794237944       -3.1696749901
 C       -10.5455266231        0.6261156973       -1.7261018491
 O       -10.8214963886        1.4716872620       -0.8674397128
 C       -10.0370807621       -0.7657915915       -1.3896236335
 C        -8.7552562238       -0.6869525576       -0.4496820969
 O        -8.8080905528       -0.0758591483        0.5616250180
 C        -7.6333630879       -1.8693111255       -0.4299414114
 C        -7.1157032981       -2.1590917572        0.9946236505
 C        -8.1016744825       -2.9431341726        1.8780962613
 O        -9.2229952677       -2.9564687996        1.4675988639
 C        -7.6265870713       -3.6714552812        3.1776797357
 C        -8.5005149726       -2.9763839492        4.4342303717
 O        -7.8198103234       -2.3953218011        5.2156464960
 C       -10.1450177264       -2.9608347520        4.4392144615
 C       -10.6234001388       -1.7695945830        5.3288439729
 C       -10.4109230381       -0.4435536393        4.5991815353
 O       -10.4356754828       -0.4397773182        3.4060150298
 C       -10.1764653668        0.9000458020        5.4483161672
 C       -10.3382427927        2.0760581739        4.4204263422
 O        -9.5339623441        2.2900640818        3.4983334747
 C       -11.7625507826        2.6931721496        4.5162545759
 C       -11.9892820264        3.9072638578        3.5891937623
 C       -12.6162885221        3.6387042999        2.1558418744
 O       -12.3889215718        2.6783066909        1.4318351707
 C       -13.7216997794        4.7666922879        1.6546749052
 C       -13.6422573940        5.3934462745        0.1555644341
 O       -14.4628557160        5.1322630961       -0.6478352788
 C       -12.4529859120        6.4526426539       -0.0684910135
 C       -12.2852296500        7.0763727402       -1.6711191635
 C       -11.1734552380        6.3688891992       -2.5506108164
 O       -11.1972332087        5.1731350098       -2.7203160827
 C       -10.0550206264        7.2866279728       -3.2774001729
 C        -9.5829531364        8.6501803157       -2.5093442774
 O        -9.4276480452        8.4171527621       -1.2594470347
 C        -9.3525465716       10.0439232453       -2.9445526770
 C        -8.4337835377       10.4255233279       -4.1434381952
 C        -8.5037409975       12.0274980173       -4.4985877894
 O        -8.9772559579       12.8469970796       -3.7781779517
 C        -8.3073291389       12.5479644247       -5.9301216576
 C        -6.9081083095       12.2142840376       -6.5318359710
 O        -5.9804386438       12.1246651112       -5.7621881642
 C        -6.7178064519       12.2905413340       -8.1267889488
 C        -9.4360340553       11.9222265988       -6.8130581964
 C        -8.4754613457       14.0587097543       -6.0601904348
 C        -8.6745775507        6.4913468497       -3.7547849503
 C       -10.7996184622        7.7015359401       -4.6433463410
 C       -15.0278091360        3.9433796338        1.6233330305
 C       -13.9029647495        5.8700418209        2.7109091444
 C       -11.0882314974        0.9288151558        6.6279102234
 C        -8.6648123241        0.7632177537        5.9309051061
 C        -8.0417633812       -5.1326721577        3.0482118271
 C        -6.1154067120       -3.5713802796        3.3080316427
 C       -11.0985103835       -1.4734849200       -0.5234086865
 C        -9.5291688541       -1.5352360710       -2.6974742675
 H       -10.4295341616        2.2157062480       -3.2090147471
 H       -11.0582949666        0.6828202722       -3.8894020625
 H        -9.4203505468        0.8601316943       -3.5764099393
 H        -6.6268544174       -1.6831317995       -0.9182749903
 H        -8.0428815385       -2.8411280190       -0.9422297582
 H        -6.8390943424       -1.4002054173        1.7614472577
 H        -6.1881579770       -2.8718968147        0.8849806751
 H       -10.4981762116       -3.9332545935        4.8940882007
 H       -10.4846710299       -2.9506857682        3.4226878828
 H       -10.1552605052       -1.7953358825        6.3516920013
 H       -11.6503024869       -1.7603567662        5.3887494059
 H       -11.8950972405        2.9857576419        5.4881974323
 H       -12.4082527317        1.8590511864        4.4546753457
 H       -11.0543891625        4.3751358775        3.3535081228
 H       -12.5720116157        4.5960782144        4.1944106730
 H       -11.5190408883        6.1833100779        0.2762312052
 H       -12.6689749043        7.3030316637        0.6478315826
 H       -12.0751861819        8.2326693469       -1.5893891762
 H       -13.3498583741        7.0027007258       -2.1119654455
 H        -9.0303442661       10.4568382240       -2.0097000473
 H       -10.3228831305       10.2678940451       -3.3138019147
 H        -8.7108437750        9.9099588542       -5.1205826709
 H        -7.4264632186       10.1496791263       -3.8288100504
 H        -7.6508705391       12.0874645552       -8.5804673425
 H        -6.0559246994       11.4802693471       -8.1962384430
 H        -6.3197031461       13.2482168703       -8.4556643169
 H        -9.2390259127       11.9208980211       -7.8928238739
 H       -10.3137494870       12.5014928916       -6.7840002394
 H        -9.8294862527       10.8756176628       -6.6407694094
 H        -8.0434769863       14.7550518399       -5.3566183085
 H        -9.4950351464       14.2412130059       -5.9150031098
 H        -8.2950505700       14.3353409968       -7.1607663196
 H        -8.3335165250        5.8033585654       -2.9196811095
 H        -7.8756467746        7.2799667250       -3.6928937633
 H        -8.7207921579        6.0474353356       -4.7382267697
 H       -11.5142093405        8.5088884920       -4.4282554881
 H       -11.3561411114        6.8155953940       -4.8486567881
 H       -10.1919232275        7.9697492531       -5.5067393734
 H       -14.9696941355        3.0669563099        2.2646664433
 H       -15.2527783916        3.5185242602        0.6388644433
 H       -15.8681566563        4.5486147513        1.9232611652
 H       -14.0918137530        6.8127269685        2.1971181777
 H       -13.0130287954        6.1238074078        3.2288718675
 H       -14.8170057991        5.8874564260        3.2733833900
 H       -12.0611368570        1.0549995711        6.4177636044
 H       -10.7924076010        1.6787291713        7.3898113431
 H       -10.9594549096        0.0616801266        7.1578213011
 H        -8.1336380559        1.7220336671        5.9793289025
 H        -8.1421745672        0.1163742864        5.2499255582
 H        -8.6628959794        0.2442534853        6.9116318790
 H        -7.6702639427       -5.8494536010        3.8646394086
 H        -7.4601593347       -5.5049358761        2.1911107415
 H        -9.1300076534       -5.3303601309        2.9308082484
 H        -5.5339705464       -2.6375409417        3.5022857080
 H        -5.6831824482       -4.1621586346        2.4607777607
 H        -5.7107001601       -4.1225133770        4.1362462464
 H       -10.9801092876       -2.5274454265       -0.4158031710
 H       -12.0722249081       -1.3218990480       -0.8138078889
 H       -11.2327981969       -1.0451520664        0.5134403219
 H        -9.6902054329       -2.6119927342       -2.5243102628
 H        -8.4570850862       -1.2753760286       -2.7906603207
 H        -9.9485987329       -1.4320092278       -3.7177792102
 Na      -10.3034909119        1.3225352865        1.4707585603
