117

 C       -10.4866633457        1.2882975220       -3.0303904777
 C       -10.4476871812        0.6467892924       -1.6396215032
 O       -11.0244139271        1.2662286665       -0.7249586804
 C        -9.9082814020       -0.8766105606       -1.3540741601
 C        -8.8801634662       -0.8564978654       -0.2733192145
 O        -8.8264235451        0.0704495465        0.5288857554
 C        -7.6330339726       -1.8095974657       -0.4393010407
 C        -7.1547970042       -1.9980184147        0.9467416897
 C        -8.2055446655       -2.8692416574        1.8103487914
 O        -9.4104746252       -3.0171757995        1.6731119553
 C        -7.6180946953       -3.5891357534        3.1114292264
 C        -8.5044157699       -2.7395413546        4.2157929115
 O        -7.9017739728       -2.0957991425        5.0820429984
 C        -9.9792101363       -2.8702119365        4.3279201759
 C       -10.6663202262       -1.8019082541        5.2839221810
 C       -10.3602417572       -0.4199486250        4.5269240258
 O       -10.4302848100       -0.3800125889        3.3122675111
 C       -10.0655906395        0.8157398480        5.4379608832
 C       -10.3232747710        1.9468720387        4.3563780998
 O        -9.5894367476        2.2464967780        3.4634935996
 C       -11.6509680595        2.7647312741        4.4569779569
 C       -11.8219947719        3.9385051322        3.4357659426
 C       -12.6717184630        3.7397297057        2.1028221985
 O       -12.4956879682        2.7711964821        1.4511968994
 C       -13.7688489083        4.7641903801        1.6504414138
 C       -13.5149080867        5.4754506115        0.1262175270
 O       -14.3155230724        5.3320171809       -0.7475601811
 C       -12.3830136862        6.4525406452       -0.1936256753
 C       -12.2991003699        6.8065920109       -1.6452651099
 C       -11.0903104960        6.2579861230       -2.4155215836
 O       -11.0609081043        5.0517846540       -2.7455352726
 C       -10.0692960547        7.3003282504       -3.1699927450
 C        -9.4933929043        8.5530615189       -2.3577728354
 O        -9.2317440619        8.4311272666       -1.1976328294
 C        -9.3462810470       10.1523506768       -3.1482352007
 C        -8.2954227766       10.5633027323       -4.1628954673
 C        -8.5519659827       12.0025048770       -4.6088483235
 O        -8.8869714875       12.8486424988       -3.7966005642
 C        -8.4001468681       12.4269536651       -6.1241799505
 C        -6.8784006087       12.0513269489       -6.5485055684
 O        -6.1144175168       11.8061067847       -5.7042358040
 C        -6.6083581946       12.0907750322       -8.0490070709
 C        -9.5531638743       11.6025846115       -6.7232696138
 C        -8.2583476587       14.0079698456       -6.1068075106
 C        -8.8700711439        6.5253718302       -3.7257152578
 C       -10.7597338943        7.8081970242       -4.5484908481
 C       -15.1535968598        3.9327837929        1.7137155903
 C       -13.7506839541        6.0457164914        2.5401764749
 C       -11.0295226923        1.0071846235        6.6262266088
 C        -8.6379530435        0.7235935317        6.1561047246
 C        -8.1545898724       -5.0216698341        3.1279344526
 C        -6.1825974232       -3.4559583314        3.3793372856
 C       -11.0621471422       -1.5194797256       -0.5573613284
 C        -9.6339613582       -1.7660955758       -2.6371333646
 H       -11.0004557889        2.2151978470       -3.0625384189
 H       -10.9727264629        0.5396567370       -3.6450006336
 H        -9.4858283441        1.3960780611       -3.4977232486
 H        -6.9127915979       -1.2060045126       -0.9489369245
 H        -7.7608926031       -2.7854764378       -1.0026566940
 H        -7.2274966176       -1.2579493924        1.5970503624
 H        -6.1236274364       -2.4350723540        1.0954863124
 H        -9.9663757992       -3.8933006575        4.6689795123
 H       -10.4848372676       -2.8704951679        3.3280759448
 H       -10.1882847648       -1.7794025111        6.2895308492
 H       -11.7646932770       -1.8831138802        5.2278611792
 H       -11.7512306158        3.1892710768        5.4835312501
 H       -12.4349564767        1.9726033251        4.4853659539
 H       -10.8067220140        4.3937496985        3.1103445384
 H       -12.3902002957        4.7376775264        4.1081004063
 H       -11.3596649956        6.2791088690        0.3141159559
 H       -12.6863858488        7.3477359419        0.3684657766
 H       -12.5573238793        7.9357387258       -1.8443911101
 H       -13.2022343627        6.2459549968       -1.9817037289
 H        -9.2387476436       10.5871879655       -2.2132450156
 H       -10.2716376524       10.3050897125       -3.6907081829
 H        -8.2894481313        9.8921195571       -5.0784392483
 H        -7.3473341368       10.5109288716       -3.5944048820
 H        -7.4418321638       12.5294997573       -8.4541586849
 H        -6.3184535715       11.0871687816       -8.3885591287
 H        -5.8402558131       12.7796781368       -8.0528372269
 H        -9.6282628509       11.6739855837       -7.8130038317
 H       -10.5056426437       11.9772921292       -6.4111167869
 H        -9.6114599804       10.4914244780       -6.5551445646
 H        -7.6016860110       14.2526888144       -5.3082961988
 H        -9.1206595116       14.5372170945       -5.7619132917
 H        -7.9619168253       14.4974839104       -7.1156747443
 H        -8.3600619803        6.1180313209       -2.8163725975
 H        -8.1136526249        7.1798533758       -4.1297263900
 H        -9.2336461176        5.7368657528       -4.4303269353
 H       -11.2350717511        8.6925750649       -4.3834844809
 H       -11.5238027172        7.0054618189       -4.7019324979
 H       -10.1751540277        7.8879184076       -5.4120647612
 H       -14.9530278336        2.8691474207        1.8309142693
 H       -15.5427123843        3.9185533321        0.6996552240
 H       -15.9173508623        4.2916122847        2.4144420421
 H       -14.5288893440        6.7883654341        2.1712959739
 H       -12.8103253628        6.6149134265        2.5539645505
 H       -14.2220324741        5.8796621777        3.4929311015
 H       -12.0642571065        0.8017573977        6.4005343796
 H       -10.9707831023        2.0355861472        6.9978036467
 H       -10.7745568861        0.4687623716        7.4667575959
 H        -8.4455971423        1.6149336822        6.7159313981
 H        -7.8056235634        0.4801764285        5.5768548934
 H        -8.7898005470       -0.1132278258        6.8265479926
 H        -8.4448755616       -5.4615179478        4.1057780570
 H        -7.4022662830       -5.6564915343        2.7565110423
 H        -9.0889995296       -5.1100877760        2.5396960629
 H        -5.5986232517       -2.5309995265        3.3023132647
 H        -5.5847321424       -4.2491383537        2.9834747799
 H        -6.0312607688       -3.6213615443        4.4887046095
 H       -10.8896257164       -2.5256608181       -0.1185749082
 H       -11.9844212844       -1.6190031548       -1.1982846943
 H       -11.5442565773       -0.9577536237        0.1990136166
 H        -9.5272714682       -2.7521248714       -2.3221403465
 H        -8.7944193255       -1.4045288406       -3.2729583770
 H       -10.5032298671       -1.9717453273       -3.2951172255
 Na      -10.4251436133        1.3347843860        1.4997900523
