117

 C        -3.0876171103        4.0608079644        7.9868476353
 C        -3.7133097632        5.4865215039        7.8148665334
 O        -2.8839756953        6.3304563849        7.5528831650
 C        -5.3185394463        5.6812619706        7.8712881983
 C        -6.0171831608        5.0470973706        6.6271528090
 O        -6.1989006042        3.8046925428        6.6829966032
 C        -6.5355060256        5.8049767704        5.3959034805
 C        -6.8141728254        4.7014015707        4.2672964908
 C        -6.9432771392        5.3501823988        2.8534734628
 O        -7.9645058375        5.7886041559        2.4197631892
 C        -5.7283624977        5.1092848542        1.8670235268
 C        -5.8871933287        3.6012688524        1.3495297443
 O        -5.1028396665        2.7379409030        1.6524930914
 C        -7.2271220730        3.2903091331        0.6095116761
 C        -7.1192888244        2.1010679481       -0.3737013026
 C        -8.3517312554        1.2264672907       -0.6419017779
 O        -9.1408979735        1.6066919072       -1.4784091143
 C        -8.6686890665       -0.0744143506        0.1986872201
 C        -9.6970529244        0.5171332680        1.2394407909
 O        -9.2516555511        1.1569592874        2.1749934617
 C       -11.2268588864        0.4202021059        1.0861937775
 C       -11.8420828376        1.6550435077        1.7803640291
 C       -11.7395712664        2.8024442870        0.7654937328
 O       -10.6897866051        2.9307628428        0.1033086277
 C       -12.9844699734        3.7294952071        0.3742287958
 C       -13.8026798925        3.0510959989       -0.8088098780
 O       -13.2325154170        2.3453909344       -1.6551159334
 C       -15.3675278701        3.3401832528       -1.0669292631
 C       -15.5880302694        3.4514976126       -2.6298568646
 C       -15.1466444784        4.8543945348       -3.0751974718
 O       -14.7926923657        5.7044974697       -2.2806039267
 C       -15.0783847395        5.2796019557       -4.5955630114
 C       -13.6696092945        4.9475928322       -5.0734301540
 O       -13.3257767736        3.8277670492       -5.3780781713
 C       -12.6047953438        6.0977162763       -5.2415667978
 C       -11.2983088557        5.5142800477       -5.8568366596
 C       -10.7502476997        4.3916145413       -5.0430349660
 O       -10.8274286329        4.4270274830       -3.7889226489
 C       -10.1556965981        2.9340567045       -5.7840344923
 C       -11.2856530400        1.8888727540       -5.3569586801
 O       -11.6207609984        1.7127171206       -4.2370188141
 C       -11.8723852296        0.9450770221       -6.3785213813
 C        -9.9106522627        3.0940742566       -7.2572557711
 C        -8.8800531695        2.6690283990       -5.0410495754
 C       -16.2196061319        4.5459686179       -5.2928811248
 C       -15.3772219839        6.7400015694       -4.7037553492
 C       -13.7822230591        4.0958042896        1.6690924622
 C       -12.3117029582        5.1257776336       -0.2109808175
 C        -9.2398048382       -1.2290271295       -0.6421454151
 C        -7.4531480660       -0.5139710011        1.0324287351
 C        -5.9270044680        6.0127314354        0.6148824178
 C        -4.3348917072        5.2832551760        2.5111216442
 C        -5.7049986977        4.9423740298        9.2162579657
 C        -5.8030883712        7.1256664415        8.0530103209
 H        -2.2702888846        3.9140337859        7.3359580428
 H        -3.7708938061        3.2703671613        8.0574667659
 H        -2.5180072990        4.2750744834        8.9180560896
 H        -5.8872489106        6.5723412771        4.9733272454
 H        -7.5416403767        6.2806244904        5.5798116906
 H        -7.7058180764        4.1440729983        4.6043032295
 H        -6.0750428692        3.9041952259        4.3230114195
 H        -7.6434440710        4.1925678872        0.1923207296
 H        -8.0018653265        3.1010880297        1.4429376760
 H        -6.3592396636        1.3960080949       -0.0717149971
 H        -6.8033573327        2.5524041016       -1.3444616166
 H       -11.5273352686       -0.5363817615        1.4908468501
 H       -11.4304258183        0.4467180581        0.0014408420
 H       -11.0859377980        2.0498958872        2.5729433600
 H       -12.8037837472        1.4929473628        2.2457986959
 H       -15.7316636482        4.2484762661       -0.4706688870
 H       -15.8708798547        2.4656405322       -0.6718393786
 H       -16.5663700987        3.1111062093       -2.9567176101
 H       -14.8998652308        2.8372760104       -3.2256281628
 H       -12.3798442803        6.4595987571       -4.2476179802
 H       -13.0459033229        6.8525670343       -5.8746528210
 H       -10.6393182118        6.3664798466       -5.8690342841
 H       -11.4796491384        5.2918983231       -6.9481288583
 H       -11.4012526792        0.8963761729       -7.3728022977
 H       -12.8838416659        1.3188347741       -6.5656259627
 H       -11.7114142693       -0.0261602236       -5.9430020538
 H        -9.5676094200        4.0517965379       -7.5712333284
 H       -10.7588727273        2.7177266405       -7.8430781030
 H        -9.1536563875        2.3638078849       -7.6738931232
 H        -8.9638429897        2.6074087786       -3.9571006430
 H        -8.2900550359        3.4607907972       -5.2345632745
 H        -8.3679664063        1.7412477080       -5.3606423914
 H       -16.0370663115        3.4664904479       -5.2545659107
 H       -16.1993455786        4.8411957364       -6.3722450738
 H       -17.1772754282        4.7286175728       -4.9464478004
 H       -15.4468407490        7.0434153016       -5.7832575307
 H       -14.5470867243        7.3156322631       -4.1749822882
 H       -16.2445253547        6.9500622996       -4.1379901592
 H       -13.0884965211        4.5927045853        2.3168571545
 H       -14.2650460642        3.2736781503        2.1009309256
 H       -14.5000459241        4.8656637743        1.4365898984
 H       -11.9849525565        5.7535862527        0.6268289170
 H       -13.0259248395        5.7443955115       -0.7566354748
 H       -11.4306903568        4.8309339829       -0.8752698888
 H        -9.9272696897       -1.8583703826        0.0402182942
 H        -8.4472391509       -1.9036588901       -0.8855810264
 H        -9.6907677839       -0.8118928764       -1.5666961162
 H        -7.0498561205        0.2903445652        1.6995951661
 H        -6.6813138825       -0.9333366047        0.3825023349
 H        -7.6061525277       -1.3753477032        1.7404449911
 H        -5.7188973525        6.9826817118        1.0646396278
 H        -6.9261034637        6.0007760096        0.2519283590
 H        -5.2773515845        5.7548208713       -0.2309535722
 H        -4.1383404796        4.4248001075        3.0907853659
 H        -4.3452837252        6.1632348537        3.0996706324
 H        -3.5054922615        5.4695284990        1.8709531511
 H        -5.4743460264        3.8718056223        9.2221630470
 H        -6.6200443618        5.1472243777        9.6931615694
 H        -4.9210726199        5.3244276923        9.8948867397
 H        -5.9195811550        7.6196073160        7.0921781165
 H        -5.0146766539        7.6302808872        8.5561394581
 H        -6.6399226760        7.2587768367        8.6838936590
 Na      -11.1806960432        2.5351280618       -2.1107772287
