117

 C       -10.5583994172        1.1275422441       -2.8472178851
 C       -10.8453633729        0.4772374647       -1.5309771731
 O       -11.2296307243        1.1522110658       -0.6080294428
 C       -10.2269264290       -1.0373778885       -1.3149512305
 C        -8.9335223105       -0.7611682869       -0.1792301269
 O        -8.8925399999        0.2813289364        0.4371451989
 C        -7.6631567303       -1.7457944078       -0.3674585568
 C        -7.0703020798       -1.9863272789        0.9894959170
 C        -8.1241057624       -2.8299385210        1.8351094741
 O        -9.2015845661       -2.9661460720        1.2995659359
 C        -7.7437851179       -3.4758911156        3.2207452004
 C        -8.5005353086       -2.5376271150        4.2601321514
 O        -7.9740607118       -1.5524257590        4.6742020629
 C       -10.0359497888       -2.7865926749        4.5816786385
 C       -10.6555216096       -1.6374464616        5.2515136415
 C       -10.4124363083       -0.3464918619        4.5010719530
 O       -10.5202947974       -0.3318162446        3.2922237374
 C       -10.2359066720        0.9530741066        5.3536255235
 C       -10.3304615333        2.1264078149        4.3624261200
 O        -9.4045880527        2.2158772418        3.5609307513
 C       -11.5116179958        2.9628040191        4.1546076556
 C       -11.4042407926        4.1282261365        3.1462426535
 C       -12.4576129419        3.9696077982        2.0299111522
 O       -12.5617434282        2.8588588708        1.4918008845
 C       -13.6164694458        4.9835854567        1.6707984144
 C       -13.4499185440        5.4017461431        0.0943685536
 O       -14.3406295489        5.1712263872       -0.6571125930
 C       -12.1252082926        6.1347030915       -0.2795188759
 C       -12.1808710070        6.7767869414       -1.7658060750
 C       -10.8680497942        6.3422344141       -2.4529521254
 O       -10.6380924699        5.1709459166       -2.4498939972
 C       -10.0053629316        7.3511328754       -3.2553873048
 C        -9.4972214397        8.6627212216       -2.4945235065
 O        -8.8863138124        8.4546604006       -1.3908346943
 C        -9.6002532056       10.0477920238       -2.9997881999
 C        -8.2758030955       10.3806055618       -3.8646784175
 C        -8.4128577107       11.8204123498       -4.3923812364
 O        -8.8188891769       12.7080553963       -3.7012205976
 C        -8.2529504304       12.0969104757       -5.9879278515
 C        -6.9187143084       11.5374431632       -6.4988237666
 O        -6.1762216784       10.9914781496       -5.6570667603
 C        -6.4668450378       11.7058035558       -7.9953862309
 C        -9.4719078786       11.6055172556       -6.8895836090
 C        -8.4030942622       13.6297860237       -6.3268790142
 C        -8.6401036729        6.6198245773       -3.7496078908
 C       -11.0607389565        7.7734153370       -4.3845091161
 C       -14.9973351719        4.3356301886        1.6477438768
 C       -13.7649150480        6.2788733702        2.5737079130
 C       -11.2471017457        0.9075482079        6.4934613175
 C        -8.7678595995        0.9927951840        5.8444226158
 C        -8.2306603738       -4.9489257933        3.3208543470
 C        -6.2337194922       -3.3525630889        3.5637593754
 C       -11.3203818636       -1.7548936245       -0.5458915479
 C        -9.7591476167       -1.6856327595       -2.6562568320
 H       -11.1640676897        2.0438310085       -2.9302373759
 H       -10.4830528238        0.5932548628       -3.8465332738
 H        -9.5808915797        1.5520804783       -2.6226613320
 H        -6.9068832073       -1.0695166395       -0.9130558373
 H        -7.9902997366       -2.6795402894       -0.8709678213
 H        -6.8493589313       -0.9731208890        1.5394734522
 H        -6.1397439556       -2.5639925164        1.1685906136
 H       -10.3060258153       -3.7716593707        5.0753582114
 H       -10.5267808628       -2.7261057523        3.6234095449
 H       -10.2602561356       -1.5201202998        6.2746277073
 H       -11.7281206505       -1.7839603640        5.1143354236
 H       -11.7431475504        3.3707531452        5.1628321686
 H       -12.3519885059        2.2343183966        3.9978838882
 H       -10.4268345441        4.1416003742        2.6788001593
 H       -11.5523201519        5.0435717112        3.6257862916
 H       -11.4119643172        5.3682916661       -0.2298316990
 H       -11.6968153628        6.8750456229        0.4417131022
 H       -12.2380011685        7.8119926921       -1.6450617542
 H       -13.0426754292        6.4901984263       -2.2819469118
 H        -9.8227767337       10.6352304195       -2.0362507130
 H       -10.3975738361       10.0964015591       -3.7645994497
 H        -8.0992828116        9.6512543363       -4.6139242548
 H        -7.5303504308       10.4020870628       -3.1003107288
 H        -6.6368069996       12.7761364166       -8.3060988194
 H        -7.1169352372       10.9922472468       -8.4611871455
 H        -5.3866819482       11.3638226562       -7.9435277209
 H        -9.6400244279       12.1266629437       -7.8167785571
 H       -10.4475884580       11.5763769890       -6.4178948734
 H        -9.3716934710       10.5732312091       -7.1983915829
 H        -7.7414031746       14.4333871800       -6.0144637998
 H        -9.3563052294       13.9481885488       -5.9204887806
 H        -8.6284045920       13.6595736283       -7.3908573729
 H        -7.8609609799        6.6398075366       -3.0211588827
 H        -8.1747793336        7.1057334701       -4.6204188187
 H        -9.0031244780        5.6833298390       -4.0181449331
 H       -12.0468030601        8.1013146124       -3.9187715516
 H       -11.1975345072        7.1074099872       -5.1800510730
 H       -10.6091418653        8.6929144384       -4.8331956863
 H       -15.0658242438        3.6617211203        0.7874486450
 H       -15.8227295094        5.0414061924        1.4588788124
 H       -15.1464262145        3.8028705771        2.5792528600
 H       -14.7546593525        6.6605934885        2.6879645306
 H       -13.2047033259        7.1215911789        2.1564860979
 H       -13.4703955561        6.1265667373        3.6475440997
 H       -12.3139901378        0.6867736606        6.2102615810
 H       -11.2718611616        1.8291389599        7.1857217409
 H       -10.9579425758        0.0775682174        7.1748271148
 H        -8.7082070371        1.4838858136        6.8187748397
 H        -8.1498135833        1.6268970568        5.1830569852
 H        -8.2522171179        0.0318810403        5.8522299313
 H        -8.5530409004       -5.0465841912        4.3385972870
 H        -7.4033874256       -5.6375635176        3.1182387299
 H        -9.0554064679       -5.2843091626        2.7596618462
 H        -5.8945418490       -2.3451451801        3.3410105891
 H        -5.5623041761       -3.9724558874        2.9543730749
 H        -5.9554702158       -3.5956689758        4.5673860500
 H       -10.9178173262       -2.5469303891        0.0598907422
 H       -12.1495847430       -2.0979287363       -1.0827509036
 H       -11.9241304147       -1.1516199065        0.2203999743
 H        -9.4014479472       -2.7271605376       -2.6565461123
 H        -9.0913759688       -1.0595182427       -3.1774148544
 H       -10.6234974002       -1.8822330392       -3.2244640594
 Na      -10.7928853767        1.3320377971        1.6434089690
