117

 C       -10.5578331370        1.1063023020       -2.8471401406
 C       -10.7215694821        0.5346790023       -1.4439687996
 O       -11.4830555205        1.0902521196       -0.6238555501
 C       -10.2931182010       -0.9600530571       -1.1548357523
 C        -9.0511960110       -0.7677466692       -0.3677500375
 O        -9.0493625537        0.1841010507        0.3635364270
 C        -7.7884399991       -1.5790622522       -0.3634937643
 C        -7.0248655009       -1.9036879425        0.9537921041
 C        -7.9669844326       -2.9881169040        1.7671794576
 O        -9.0999994594       -3.1026590722        1.3796377036
 C        -7.6954776270       -3.4307944805        3.2377949581
 C        -8.6054348496       -2.4125396627        4.1061075506
 O        -8.0525121535       -1.3926786600        4.5286396438
 C       -10.0707080592       -2.7391257611        4.6214944436
 C       -10.7597066924       -1.5628953396        5.4197187673
 C       -10.5536578599       -0.2956216224        4.4738446784
 O       -10.6017918551       -0.3867339275        3.2890711211
 C       -10.2637089144        1.0556809867        5.2550685021
 C       -10.3448215827        2.2168501404        4.1834636780
 O        -9.3551618966        2.4003391385        3.5121733307
 C       -11.6080588937        3.1792818232        4.1233838266
 C       -11.3508978252        4.2607491577        3.0053532518
 C       -12.4976860177        4.0766911349        2.0435092334
 O       -12.6037588231        2.9971245689        1.4790742215
 C       -13.5829061956        5.1424048746        1.7154972299
 C       -13.4213208785        5.5265250424        0.0569345988
 O       -14.2366259765        5.1461177972       -0.7043843449
 C       -12.0607945950        5.9072467386       -0.3331879777
 C       -12.0020206336        6.8647244249       -1.6498068595
 C       -10.7057060449        6.3475413658       -2.3618305688
 O       -10.4002306495        5.1548811725       -2.2628608429
 C        -9.9810757460        7.3981056417       -3.3540739958
 C        -9.5470032125        8.6183976097       -2.4485191896
 O        -8.7965432855        8.3384118307       -1.4867166907
 C        -9.6664809180       10.1163551678       -2.9654213397
 C        -8.4497649866       10.3441494333       -3.8547322670
 C        -8.5611406173       11.7483686545       -4.5102583604
 O        -8.7379303583       12.6732991022       -3.7434098903
 C        -8.2559219541       12.0189162796       -6.0424860512
 C        -6.8338233414       11.2732738646       -6.3937595162
 O        -6.2117060753       10.6035352047       -5.6808710988
 C        -6.4948328002       11.4932919586       -7.8896693968
 C        -9.3500825767       11.2672228376       -6.7856537458
 C        -8.3714362715       13.6221054949       -6.1554632572
 C        -8.6800110019        6.9012848258       -3.9427388828
 C       -10.9646815090        7.6339568962       -4.4966737022
 C       -15.0003890291        4.2736574215        1.7890640334
 C       -13.5321424054        6.3005000487        2.6757094071
 C       -11.3627622295        1.0576022654        6.3953702892
 C        -8.8352956847        1.1733622007        5.9227559941
 C        -8.1315898590       -4.9201306387        3.3182794874
 C        -6.2523395771       -3.4142130559        3.5647554157
 C       -11.3335874946       -1.8758112184       -0.4433306430
 C        -9.7963369530       -1.5476854340       -2.4779881149
 H       -11.2598834415        1.8862850434       -2.8898433327
 H       -10.8444604537        0.3666623484       -3.6408327767
 H        -9.5973012571        1.5558467515       -3.1606045358
 H        -7.0752524029       -0.9243385644       -0.9247961432
 H        -8.0595016224       -2.6375086460       -0.8698140412
 H        -6.6190054927       -1.0474912253        1.5291203360
 H        -6.0052076815       -2.5531092674        0.7234534473
 H        -9.7387003793       -3.4117281097        5.4519945651
 H       -10.7500750299       -3.2541594610        3.9437519604
 H       -10.0705572430       -1.4252193243        6.2632008380
 H       -11.7298702884       -1.7525208500        5.6015789207
 H       -11.7137784542        3.5356910284        5.0833155360
 H       -12.4891434323        2.6178899321        3.8887778559
 H       -10.5879311099        3.8980781676        2.4635530683
 H       -11.0906630546        5.2816045519        3.2312348131
 H       -11.6049570435        5.0058933435       -0.5633004618
 H       -11.4666434722        6.2999020039        0.4848804090
 H       -12.0406237464        7.9872606352       -1.3550838385
 H       -12.8270956269        6.7279284116       -2.3432632723
 H        -9.6735843853       10.7894721567       -2.0998782766
 H       -10.5366879292       10.2977503919       -3.6217253913
 H        -8.2850040763        9.5637955104       -4.6152634903
 H        -7.6924990520       10.4351243264       -3.1259065607
 H        -6.3763817458       12.5656636062       -7.9855510516
 H        -7.5286321851       11.1999117317       -8.2284126984
 H        -5.6651756645       10.8683176237       -8.2232652301
 H        -9.5243705411       11.4335828349       -7.8360391189
 H       -10.2934030742       11.4095330190       -6.3943547782
 H        -9.2391259654       10.1381438509       -6.6538816488
 H        -7.6019252179       14.0631835679       -5.5622581929
 H        -9.2734543198       14.0630349111       -5.8457242717
 H        -8.2481169180       13.9545231473       -7.2741333627
 H        -7.8273614493        6.8786667525       -3.2632865161
 H        -8.3878769160        7.7115663805       -4.5940435375
 H        -8.8524492813        6.0458542887       -4.5519058740
 H       -11.9975377854        7.6625406698       -4.1366419479
 H       -10.8290333551        6.7659641806       -5.2384665438
 H       -10.7278092791        8.5361456838       -5.1068665921
 H       -15.1334817862        3.7571132156        0.8376417243
 H       -15.9601672328        4.7509752636        1.9844152868
 H       -14.7570613785        3.5396010963        2.5373503689
 H       -14.4821891550        6.8790698651        2.6278278014
 H       -12.8004275684        7.0332069987        2.4179805541
 H       -13.3901453708        6.0297882802        3.7123621237
 H       -12.3818323863        1.0337668434        6.0731774613
 H       -11.2606182216        1.9630107684        7.0900071327
 H       -11.2612732975        0.2287677323        6.9823992242
 H        -8.8823273207        1.9645678350        6.7325193859
 H        -8.1110487820        1.5486542713        5.2054353353
 H        -8.3699343911        0.2005743809        6.2902420127
 H        -8.1974808729       -5.2539377029        4.3964317341
 H        -7.6058749933       -5.5776577575        2.6767520717
 H        -9.1847593896       -4.9771087403        2.9637258882
 H        -5.8659069392       -2.3859757478        3.7474812653
 H        -5.6495671114       -3.6976947248        2.6890385251
 H        -5.9537860958       -4.1286151694        4.3240317629
 H       -10.8960402129       -2.8317234129       -0.2934653999
 H       -12.1998447546       -1.9187443782       -1.0244910446
 H       -11.7850709668       -1.6762771364        0.5256073040
 H        -9.6152701277       -2.5899895728       -2.3600479688
 H        -8.8270938389       -1.1094917913       -2.7738327449
 H       -10.5102335352       -1.6237195650       -3.3084035637
 Na      -10.8612545741        1.2653272284        1.6533554389
