117

 C       -10.6750881401        1.1473850127       -2.7925855758
 C       -11.1107495216        0.4078486065       -1.5418720318
 O       -11.6423454335        1.0490081335       -0.6268024326
 C       -10.2760585314       -0.9491571080       -1.1920739824
 C        -9.0404169054       -0.6010266470       -0.1192089432
 O        -9.0232862857        0.2619558030        0.7276823546
 C        -7.7370014470       -1.5798560880       -0.4810553548
 C        -7.1729400042       -2.0037253501        0.9117702943
 C        -8.1044933162       -2.8218382792        1.7455512974
 O        -9.1026148414       -3.3171041123        1.2593672030
 C        -7.6728803190       -3.3295969599        3.2460115251
 C        -8.5003750336       -2.4579232045        4.2323864394
 O        -8.1817451562       -1.2551485112        4.2730658879
 C        -9.8591878746       -2.8789722020        4.6483018303
 C       -10.5196830887       -1.5825234453        5.3644644697
 C       -10.4753638545       -0.2552830044        4.5069348425
 O       -10.8079150587       -0.3875593285        3.3166551653
 C       -10.3401565449        1.2369967402        5.2152006899
 C       -10.3036515650        2.4344898963        4.2142422476
 O        -9.4717216805        2.5542738792        3.3424283671
 C       -11.4969730591        3.4039747122        4.1415834479
 C       -11.3864723542        4.3598704683        2.9324744667
 C       -12.4916990339        4.0751236234        1.8998989698
 O       -12.5935001473        2.9866669913        1.3752618139
 C       -13.6034635595        5.1672499720        1.6872864264
 C       -13.4091160188        5.4674905797        0.1594121771
 O       -14.2684948127        5.2315034425       -0.7112723428
 C       -11.9241841748        5.8217694873       -0.1967683301
 C       -11.6639884205        6.7834930719       -1.4150433342
 C       -10.5684945697        6.3032310847       -2.3876509082
 O        -9.9456213904        5.2688493201       -2.2325745683
 C       -10.0066216272        7.4226832689       -3.5131122479
 C        -9.4919163737        8.5079053312       -2.4465038338
 O        -8.8357556713        8.3461348923       -1.5017545214
 C        -9.7244791340        9.9975389770       -2.9228107429
 C        -8.6404639152       10.3041250549       -3.9102234700
 C        -8.5096428576       11.7718506609       -4.3770226757
 O        -8.7603403177       12.7801812860       -3.7338437796
 C        -8.2193140303       11.8201080152       -5.8721184458
 C        -6.9605628148       11.1555945886       -6.3404203220
 O        -6.3730303245       10.3162325858       -5.7110889895
 C        -6.4553247164       11.3217337428       -7.9118489956
 C        -9.2709342774       10.9597340283       -6.6524999456
 C        -8.1627497220       13.2845858313       -6.1514790899
 C        -8.6830921752        6.9467747684       -4.1104656134
 C       -10.9794596797        7.6286307775       -4.6299138188
 C       -14.9323755399        4.3712768793        2.0075743970
 C       -13.4156650117        6.3253684318        2.6268146551
 C       -11.4756800863        1.4960630036        6.2539057074
 C        -9.0823969381        1.2267885076        5.9898522209
 C        -8.2067361197       -4.8722884837        3.3189780279
 C        -6.1360757370       -3.3249541352        3.6686590603
 C       -11.2664909185       -1.8428577180       -0.4937675953
 C        -9.8638260860       -1.6858527471       -2.5099970162
 H       -10.9247349545        2.2213957682       -2.8039584846
 H       -11.0211431337        0.7077222958       -3.6579545502
 H        -9.5820653001        1.0798770419       -2.8415131312
 H        -6.9693716472       -0.9726957496       -0.9916582889
 H        -8.2162075336       -2.3912922317       -0.9745782379
 H        -7.0379706561       -1.0388615297        1.4027218819
 H        -6.1578743520       -2.3828105083        1.0150856193
 H        -9.8872969491       -3.6768063532        5.3265859257
 H       -10.3803143371       -3.1064633721        3.6775626122
 H       -10.1067207783       -1.4700484454        6.3151088337
 H       -11.6116741108       -1.7440108590        5.2629983427
 H       -11.5541025277        4.0165615542        5.0336783144
 H       -12.3615511174        2.8314920447        4.0410479493
 H       -10.4050004513        4.3471068564        2.4201446743
 H       -11.4896873400        5.4180371838        3.2492738889
 H       -11.3773276550        4.8703206749       -0.4438678267
 H       -11.4593052566        6.2027119909        0.6638453551
 H       -11.5422593375        7.8683226449       -1.0750595269
 H       -12.6051902346        6.8280669255       -2.1246247341
 H        -9.6568352189       10.6528138183       -2.0716404496
 H       -10.6803592584       10.2265227696       -3.4131620177
 H        -8.9584740798        9.8243222600       -4.8346834620
 H        -7.6980765851        9.8938833004       -3.4684625254
 H        -5.9005916052       12.2059229205       -7.7736082434
 H        -7.2736625781       11.4203464504       -8.6199091353
 H        -5.8404087391       10.4872401580       -8.0938118080
 H        -9.0365872887       11.0403351657       -7.7141619925
 H       -10.3079653389       11.3394421863       -6.6867534817
 H        -9.4167336300        9.9155097515       -6.4543995921
 H        -7.4331242644       13.5820151857       -5.3722107214
 H        -9.0498318610       13.9632542293       -6.0771318610
 H        -7.6903692478       13.5267334655       -7.0518420020
 H        -7.9181132238        6.8418727233       -3.3457527883
 H        -8.3053049558        7.8298943125       -4.5968120961
 H        -8.7652952973        6.1254199789       -4.8895135285
 H       -12.0002385522        7.8285745738       -4.3545602096
 H       -10.9470159945        6.5849356758       -5.1223271658
 H       -10.6060217095        8.2721001690       -5.4264133116
 H       -15.3713172780        3.8643297151        1.1554841151
 H       -15.6873532962        5.0682365285        2.3188485315
 H       -14.6854190566        3.6681155293        2.8224045448
 H       -14.0184999890        7.2498621803        2.4410885889
 H       -12.4018179957        6.7054658986        2.5773637081
 H       -13.5272394955        5.9995945956        3.6410217349
 H       -12.4186162420        1.5079175847        5.8173817241
 H       -11.3245042691        2.3948722116        6.5900523051
 H       -11.5825623261        0.7839819025        7.0898984457
 H        -8.8602139576        2.2272334747        6.4165037891
 H        -8.2213111903        0.9322140115        5.3501079535
 H        -9.0946744765        0.4534650137        6.7759372720
 H        -7.9479910039       -5.4430241071        4.2385064633
 H        -8.0274811896       -5.4388273931        2.3807471577
 H        -9.3482057898       -4.8757317847        3.2829092398
 H        -5.8635784462       -2.4011497918        4.1933174223
 H        -5.3644938098       -3.3186071967        2.8972015844
 H        -5.9594782519       -4.2600647153        4.3068873887
 H       -11.0548290556       -2.8886050364       -0.4279548651
 H       -12.3148661543       -1.6143065294       -0.7850002261
 H       -11.3619856226       -1.6949700159        0.5049101977
 H        -9.6450221803       -2.7303037920       -2.2620338310
 H        -8.8911087277       -1.4010928307       -3.0001017655
 H       -10.6850707034       -1.8322009522       -3.2549991542
 Na      -10.9258810907        1.2078629594        1.5792793522
