117

 C       -10.7818321142        1.1996816128       -2.7852414132
 C       -10.9932118794        0.4674039199       -1.4535590425
 O       -11.8322964171        0.8470723778       -0.7139766694
 C       -10.3096578447       -0.8923009499       -1.1647621666
 C        -9.0731993918       -0.6031228214       -0.1945707991
 O        -9.0273696224        0.0773132805        0.8147704275
 C        -7.8401587466       -1.4227611101       -0.2955140997
 C        -7.2284589622       -1.8910165174        1.0338764628
 C        -8.0914144401       -2.9596987248        1.7359395276
 O        -9.0950359703       -3.4375789213        1.2317955834
 C        -7.7239521138       -3.3515395924        3.1998949176
 C        -8.5186490618       -2.2749527063        4.0128155597
 O        -8.1166096107       -1.1463550317        4.0643834760
 C        -9.7905474272       -2.7069230892        4.7067208282
 C       -10.4076931951       -1.4717214302        5.4128358972
 C       -10.6713232730       -0.2202941639        4.5462303649
 O       -10.9713997474       -0.2353806380        3.3403881365
 C       -10.4314549156        1.3157191694        5.1892339996
 C       -10.3862755149        2.4262881837        4.0148768600
 O        -9.4737013414        2.5010822572        3.2092601393
 C       -11.4122963503        3.6277701552        4.1877932612
 C       -11.3077522319        4.4039612861        2.9290195034
 C       -12.4961678443        4.0108284235        1.9327428998
 O       -12.4542207778        2.9431583702        1.3171801534
 C       -13.5535372178        5.0496225136        1.7602701884
 C       -13.3239490303        5.3871837035        0.1602790878
 O       -14.2271988026        5.4355919888       -0.6294865774
 C       -11.8016946363        5.7825178635       -0.1964100869
 C       -11.4661693580        6.6183219608       -1.3475940307
 C       -10.2561717498        6.2668878826       -2.3569230051
 O        -9.5650350698        5.3193893636       -2.2148606083
 C        -9.9173933625        7.3523158647       -3.4753714288
 C        -9.5936983124        8.5868240574       -2.5286488567
 O        -8.9653536428        8.2164677705       -1.5452475630
 C        -9.8924490315        9.9988325106       -2.7566440176
 C        -8.7085930337       10.2622659870       -3.7570287764
 C        -8.6183181804       11.6909514469       -4.3747415289
 O        -8.7442766650       12.6053053225       -3.6167158658
 C        -8.1164423987       11.7499840488       -5.9602366686
 C        -6.9086313086       10.8496024055       -6.3676761664
 O        -6.4296439677        9.9384870194       -5.6338331049
 C        -6.3297407038       11.2030740153       -7.7981033433
 C        -9.4059641416       11.0265863539       -6.7118756634
 C        -8.0062606749       13.1805384851       -6.4759443826
 C        -8.5788685217        6.7341707695       -4.2073188666
 C       -11.0668099064        7.6967932604       -4.5018206057
 C       -14.9435327524        4.5788931078        2.1318781384
 C       -13.4449980402        6.4586375307        2.4272000575
 C       -11.6458273233        1.7134809121        6.0780487283
 C        -9.0972991531        1.2726299779        6.1040184057
 C        -8.1821952294       -4.8094791774        3.3675608871
 C        -6.1931601136       -3.2124197063        3.6044250967
 C       -11.2829260926       -1.8000590986       -0.3528200291
 C        -9.9623763740       -1.6636817132       -2.4833366295
 H       -10.9064152464        2.2944321401       -2.7785832673
 H       -11.5753358135        0.7593773400       -3.3991717455
 H        -9.8645388063        1.0247082898       -3.2753831375
 H        -7.0845752334       -0.8640976987       -0.8424087151
 H        -8.2325220567       -2.2734755076       -0.6645179045
 H        -6.8383424438       -1.1432960812        1.7275575066
 H        -6.2952764196       -2.3244633123        0.8117141326
 H        -9.8239459561       -3.5259380540        5.4028293502
 H       -10.4128034811       -2.9078664653        3.8289337045
 H        -9.7797894504       -1.1664029942        6.2310834680
 H       -11.4984084007       -1.8040944576        5.6411801922
 H       -11.0388016959        4.3413259325        5.0244197753
 H       -12.4820172446        3.3372027967        4.3189712682
 H       -10.2289990556        4.2771096687        2.3718971565
 H       -11.3576267744        5.4952817047        3.0957714805
 H       -11.1540659060        4.8111589602       -0.3478005860
 H       -11.3532192688        6.2870630255        0.6926996604
 H       -11.1027512114        7.5124099401       -0.8928291468
 H       -12.3914350701        6.9925598149       -1.9017713920
 H        -9.7919888334       10.7193565304       -1.8854549264
 H       -10.9134670555       10.1757196501       -3.1115235463
 H        -8.8071334176        9.5970153222       -4.6083874263
 H        -7.7681624180       10.0855663859       -3.1325392796
 H        -5.4701756894       11.8149662704       -7.5289860314
 H        -7.0261013237       11.7071761538       -8.3306942642
 H        -6.1160140153       10.2560509688       -8.2640055139
 H        -9.2970154072       11.0417915123       -7.8075245424
 H       -10.4781318401       11.4257189426       -6.6524526073
 H        -9.5423312824       10.0094821747       -6.4783858123
 H        -7.3181133949       13.7817920977       -5.8382546627
 H        -9.0233177594       13.6672569086       -6.4653434164
 H        -7.5695401282       13.2903190924       -7.4263138164
 H        -7.7937145677        6.4215136979       -3.5154268689
 H        -8.0765386123        7.5179103488       -4.8268776305
 H        -8.9710683575        5.9314759031       -4.8837926880
 H       -11.8778295880        8.3545027769       -4.1060479113
 H       -11.5505168396        6.9391160701       -4.9981630860
 H       -10.4549644201        8.1922992566       -5.2438300830
 H       -15.5142982133        4.0514987700        1.3778700732
 H       -15.3907577288        5.5645329176        2.1240069339
 H       -15.0405703237        4.0978576833        3.1098297271
 H       -14.1252713061        7.1291254372        1.9573836089
 H       -12.4498543240        6.9807846121        2.3749248282
 H       -13.5819785396        6.3615163744        3.5402646418
 H       -12.5617702889        1.6850361823        5.5363282138
 H       -11.5035599693        2.7823009659        6.3617993651
 H       -11.8454594044        1.0909236149        6.9516585976
 H        -8.5944899835        2.2100020644        6.1498826824
 H        -8.3789961023        0.5143933356        5.7424558033
 H        -9.3317783913        0.9806796809        7.0991357338
 H        -7.7767662796       -5.3736041736        4.1840721945
 H        -7.9149326240       -5.2521537145        2.3487462229
 H        -9.2547688641       -4.9337769634        3.3481344280
 H        -6.1009618663       -2.2165089874        4.0298698967
 H        -5.4604378000       -3.0921312393        2.7718744950
 H        -5.8332159625       -4.0162756373        4.2794276376
 H       -10.9394533441       -2.8057963840       -0.1850552609
 H       -12.3601264184       -1.7329465019       -0.4833759417
 H       -11.2262034524       -1.5843874398        0.7569905571
 H        -9.4327999708       -2.6828650308       -2.3126637419
 H        -9.1560700299       -1.1888469072       -3.0406580818
 H       -10.8167703315       -1.8782494283       -3.1390174703
 Na      -11.0261655015        1.1930122193        1.5173357978
