117

 C       -10.9084516910        1.2023154601       -2.7672051322
 C       -11.0681182048        0.4255827822       -1.4187534371
 O       -11.9874536529        0.7846609637       -0.7250945759
 C       -10.2199490682       -0.8319489824       -1.0126490062
 C        -9.0649016197       -0.7458569958       -0.1027612624
 O        -9.3786967792        0.0801920347        0.7521792334
 C        -7.6761487525       -1.5861860550       -0.3351374482
 C        -7.2009078495       -1.8712355489        1.0296883265
 C        -8.0284237472       -3.0236347282        1.7289009153
 O        -9.0046956719       -3.4831241734        1.1600431251
 C        -7.7380583846       -3.3746971098        3.1460911762
 C        -8.5608105854       -2.1077272954        3.8353991635
 O        -8.0079292098       -1.0426356733        3.8696460135
 C        -9.9231652515       -2.3306667268        4.6776892283
 C       -10.4919974416       -1.1763164349        5.4956480901
 C       -10.7215941452       -0.0274836390        4.5558967407
 O       -11.1715080464       -0.2084046250        3.4879631134
 C       -10.5458793209        1.3843456747        5.1609857093
 C       -10.3210720407        2.4329020339        4.0908650922
 O        -9.5834744351        2.2090677564        3.1530680668
 C       -11.0491007371        3.7269064268        4.1774494846
 C       -11.1074356295        4.4900567472        2.8665436605
 C       -12.4734290902        4.1112874013        2.0204867261
 O       -12.3915703625        3.0126039083        1.4505221620
 C       -13.5530855470        5.1824467327        1.6477721557
 C       -13.2085910149        5.4875593550        0.1061875441
 O       -14.1219613665        5.6571532042       -0.6064756264
 C       -11.6945496994        5.5667088514       -0.2412618841
 C       -11.3982824758        6.5062626161       -1.4075230286
 C       -10.1229460824        6.1766510697       -2.3291328624
 O        -9.3745134448        5.2326364479       -2.0699214148
 C        -9.8465623427        7.2439566015       -3.4304271805
 C        -9.5371452083        8.4704261122       -2.4776484582
 O        -8.9778044671        8.1820674252       -1.3693371915
 C        -9.9038312522        9.9095858153       -2.8444260467
 C        -8.6275910457       10.2295563427       -3.6977811971
 C        -8.5861064458       11.5562346117       -4.4261175710
 O        -8.6812780722       12.5857298412       -3.8066070905
 C        -8.2187763726       11.6473598856       -5.9812863815
 C        -6.9146818900       10.6423116691       -6.3477932670
 O        -6.5855250330        9.7153066885       -5.6473144530
 C        -6.0962008189       10.9027712700       -7.5628802726
 C        -9.4698498522       11.2228138828       -6.7589772824
 C        -8.0010724291       13.0812503114       -6.5617091334
 C        -8.7358795716        6.7274976553       -4.2383547949
 C       -11.0934827132        7.6807409419       -4.3029315776
 C       -15.0347773820        4.6633964845        2.0155124435
 C       -13.3467179513        6.5894628709        2.2455448388
 C       -11.7826473497        1.5865513150        6.0570762446
 C        -9.2481433786        1.3992597189        6.0280237470
 C        -8.1279296821       -4.7962246954        3.4984449584
 C        -6.2536823164       -3.1307265721        3.4489543418
 C       -11.2641219561       -1.6969421064       -0.1915350342
 C        -9.9904285868       -1.5585301865       -2.3557590511
 H       -10.7796104785        2.2321934834       -2.5462146033
 H       -11.8180382594        1.1136428744       -3.4797615652
 H        -9.9775496180        0.9961912392       -3.3005541785
 H        -7.1125937790       -0.7584722482       -0.6536662830
 H        -7.9037063893       -2.5273221048       -0.9799965090
 H        -7.3273994705       -0.9799624526        1.6607492196
 H        -5.9868699347       -1.7998199355        1.1265869847
 H        -9.5901555642       -2.9456267485        5.5802775667
 H       -10.6179785541       -2.9283235516        4.1453044293
 H        -9.5333528166       -0.9334611644        6.0993825718
 H       -11.3628785711       -1.4738825744        6.0624910096
 H       -10.5415594002        4.4576853295        4.8818057977
 H       -12.1768039976        3.5505228872        4.5019953960
 H       -10.2375645935        4.2381064511        2.2000008507
 H       -11.0001825664        5.5889456954        3.0092803489
 H       -11.3797639515        4.5700830512       -0.6119397231
 H       -11.0360612483        5.7967446009        0.7077547137
 H       -11.3975150785        7.5264621798       -1.1261931022
 H       -12.2148318844        6.4309565474       -2.0088977069
 H        -9.8976581615       10.7095776445       -2.0252995422
 H       -10.9354545893       10.0860380309       -3.2368325850
 H        -8.4557568030        9.4763758549       -4.4798434097
 H        -7.8089891777       10.2474578056       -2.9571977597
 H        -5.1202353846       11.3140312969       -7.3181240190
 H        -6.7389006724       11.5262330966       -8.2169106326
 H        -6.1592235108        9.8790145160       -7.9398047557
 H        -9.3876545370       11.3979595199       -7.8311256255
 H       -10.4132535351       11.6443316166       -6.5597950922
 H        -9.6836382784       10.1214657369       -6.6757671808
 H        -7.1617465411       13.6523462834       -6.1964456786
 H        -8.8947290175       13.6228073341       -6.4703825336
 H        -7.7208147096       12.9861126956       -7.7169712013
 H        -7.8985613126        6.4089151225       -3.5764812502
 H        -8.2608673289        7.3766581919       -5.0171382856
 H        -9.1953737170        5.8848441651       -4.6956268725
 H       -11.6929933521        8.3570748586       -3.7009835011
 H       -11.8441433717        7.0073289338       -4.6393069730
 H       -10.7063008209        8.1562626577       -5.1807885131
 H       -15.2542850579        3.6969308027        1.5395253060
 H       -15.7556530678        5.4054128577        1.6267079781
 H       -15.1144894014        4.5831886542        3.1010164861
 H       -14.1951240228        7.1562250369        1.8366537872
 H       -12.4558612267        7.2066648623        2.0367004332
 H       -13.3347757879        6.5334660558        3.3686862227
 H       -12.7963072817        1.5855414664        5.5040517792
 H       -11.7195249164        2.6527416150        6.6104150054
 H       -11.8381937381        0.7926555892        6.7598417728
 H        -8.7040370230        2.2963003532        5.8388113316
 H        -8.5723661186        0.6282963217        5.8575668622
 H        -9.4318465004        1.4516912735        7.0877687159
 H        -7.8671211554       -5.0283692794        4.5247581229
 H        -7.6087212839       -5.4307853492        2.8315274657
 H        -9.1451866645       -5.0079287396        3.3064990357
 H        -6.0329329607       -2.0296318912        3.4737430362
 H        -5.6473849328       -3.4107237830        2.5709628603
 H        -5.9091532407       -3.6586496584        4.2912491302
 H       -10.8167196144       -2.6478120076        0.1397854628
 H       -12.2454180188       -1.8372259991       -0.5994930799
 H       -11.5141532986       -1.4105798684        0.9043415820
 H        -9.4223949281       -2.4966325337       -2.4364982097
 H        -9.3454649480       -0.9625318294       -2.9840178431
 H       -10.9415868566       -1.6334790153       -2.8759781359
 Na      -11.0978933997        1.1686171985        1.4587715568
