117

 C       -10.9316594607        1.1901910292       -2.6515178927
 C       -11.2421105405        0.3823463185       -1.4175621530
 O       -12.1085439755        0.8597643683       -0.6117235188
 C       -10.5109403140       -0.9148673727       -1.1666644759
 C        -9.1177007329       -0.5502985564       -0.1626127377
 O        -9.1155059277       -0.0202593091        0.9037099901
 C        -7.8392518305       -1.3676527822       -0.3444289347
 C        -7.2512552919       -1.8345258478        1.0728796964
 C        -8.0870015857       -2.9645351074        1.6326875958
 O        -8.9046428024       -3.5586920655        0.9468789569
 C        -7.7469655457       -3.2419769312        3.2006650010
 C        -8.4212172050       -2.1066007453        4.0212155689
 O        -8.1295394463       -0.9327065707        3.7253865943
 C        -9.7734176119       -2.3061636531        4.6815692517
 C       -10.3895032114       -1.1462804332        5.5116505897
 C       -10.7897638336        0.0904753143        4.5155574984
 O       -11.4161125834       -0.1382921376        3.4968524844
 C       -10.6294471722        1.5079801208        5.2432981614
 C       -10.3581768836        2.4323801705        4.0076734124
 O        -9.6921847956        1.9469507340        3.0990535582
 C       -10.8091567461        3.9402528781        4.1723670117
 C       -11.0170493988        4.6968488112        2.8208552743
 C       -12.2748304058        4.2767691135        2.0726496642
 O       -12.5618564341        3.1567349905        1.6880936126
 C       -13.3873804602        5.3362960306        1.6502945766
 C       -13.1557311207        5.4878966429        0.0783197647
 O       -13.9792944626        5.9063759658       -0.7563398538
 C       -11.7595343515        5.2514713211       -0.3817201635
 C       -11.5408931859        6.2323722998       -1.5770752393
 C       -10.2017342725        6.0611318786       -2.1990447053
 O        -9.3950197801        5.2014614926       -1.9468503158
 C        -9.8592025119        7.1585986610       -3.2495517109
 C        -9.4371638502        8.3576576054       -2.3005179769
 O        -8.9534893689        8.2965104239       -1.2011224939
 C        -9.6385028482        9.8008369972       -2.9510837849
 C        -8.4213968151       10.2058616773       -3.7927510764
 C        -8.4146699962       11.6313469137       -4.4901033317
 O        -8.6723489720       12.7200745822       -4.0270342075
 C        -8.2354420260       11.4655524689       -6.1037142640
 C        -7.0366753249       10.4786189192       -6.3461893711
 O        -6.8987224524        9.6144205332       -5.5774511441
 C        -5.9161788815       10.6598112822       -7.5194215525
 C        -9.5028156491       11.0982972616       -6.8004916569
 C        -7.8641321423       12.9505600963       -6.4276016380
 C        -8.7919072201        6.7680801155       -4.3313376075
 C       -11.1503927604        7.4786984932       -4.0911889115
 C       -14.7863559818        4.7160644448        1.6973818911
 C       -13.2277204264        6.6719861759        2.2890004470
 C       -11.9005666763        1.5478937445        6.1298652886
 C        -9.2921639694        1.6433367999        6.0397160274
 C        -8.1769619811       -4.6821702163        3.7095550089
 C        -6.1956428347       -3.0597985642        3.4334784805
 C       -11.3252105514       -1.7926222132       -0.2002758630
 C        -9.9824024658       -1.7391042777       -2.4813185637
 H       -10.7114885667        2.2534682874       -2.4830253735
 H       -11.7848732083        1.1591688693       -3.3396640597
 H        -9.9833263180        0.8092872507       -3.1575135644
 H        -7.1939507045       -0.6462008712       -0.9414829648
 H        -8.1807283288       -2.4058960529       -0.7466875386
 H        -6.8926043944       -1.1762534211        1.9250692909
 H        -6.1518033660       -2.1121030489        0.7621337234
 H        -9.9914355069       -3.2833993445        5.1403305996
 H       -10.4022243239       -2.3121272506        3.7446732785
 H        -9.7821194187       -0.8774632534        6.3868511110
 H       -11.3391563096       -1.5250066778        5.8169103974
 H        -9.9648060235        4.4794374296        4.5808499231
 H       -11.7008905136        4.0047250339        4.7901978661
 H       -10.2255806839        4.4700616510        2.2447669986
 H       -10.9549828792        5.7900060117        2.8074749589
 H       -11.5197665895        4.2457792611       -0.5764019215
 H       -11.1388070396        5.6049242977        0.4246926286
 H       -11.6288245245        7.2793862623       -1.3004312131
 H       -12.2416855777        6.1563224155       -2.3593721324
 H        -9.9289298912       10.5840444291       -2.2706943536
 H       -10.5390081357        9.9028406056       -3.6059298954
 H        -8.5191592069        9.5214826464       -4.6477648304
 H        -7.4501153323       10.1263145882       -3.3276631032
 H        -5.0922503752       11.0440098444       -6.9113144758
 H        -6.2494965337       11.4492327320       -8.2973268982
 H        -5.7935065332        9.6385370149       -7.9059363123
 H        -9.5776685898       11.2621418918       -7.8572312862
 H       -10.2577257082       11.7140905678       -6.4303217469
 H        -9.9622010529       10.0956893057       -6.6388328503
 H        -6.8622162927       13.1775329522       -6.0496582474
 H        -8.5948807463       13.5661927057       -5.9236105607
 H        -7.7876046363       13.2279941278       -7.4712930155
 H        -7.8444541220        6.6927494520       -3.8001528841
 H        -8.6633842379        7.4882024009       -5.1077517314
 H        -9.0644194514        5.8202457244       -4.7726798479
 H       -11.9866054538        7.7011783779       -3.5088068427
 H       -11.5271570780        6.4526369563       -4.4606161970
 H       -11.0584213597        8.0743026820       -4.9842536787
 H       -14.5889920574        3.6398370194        1.7150135702
 H       -15.4299218969        4.9655361319        0.8532089205
 H       -15.2515572336        5.0064493421        2.6469227626
 H       -14.1278547028        7.2523846972        1.9034667016
 H       -12.3818470389        7.2503804450        1.9651403658
 H       -13.0914306873        6.6649063711        3.3566263000
 H       -12.8490625564        1.5487364932        5.4787078756
 H       -11.9914960607        2.3311755015        6.8035492963
 H       -11.9423904239        0.5372654448        6.6899207726
 H        -8.9394005433        2.6818704520        5.9594797919
 H        -8.4853928763        1.0469506979        5.6809428956
 H        -9.3504882311        1.5396593335        7.1273567082
 H        -8.2678663147       -4.6203297404        4.7835182696
 H        -7.4777461676       -5.4093058128        3.5145890979
 H        -9.1138683182       -4.9971321433        3.2774139863
 H        -5.6221642096       -2.2261713846        3.0222385372
 H        -5.7740267051       -3.9186285646        2.9403242671
 H        -6.0287424368       -3.2243734211        4.4889876567
 H       -10.7788862103       -2.5011129663        0.4315108597
 H       -12.2741089170       -2.2648580030       -0.5426142111
 H       -11.6929006089       -1.2505818656        0.6065702076
 H        -9.5072342251       -2.6265134902       -2.3107500914
 H        -9.1471196181       -1.2029136653       -2.9356158800
 H       -10.7257810848       -1.8010405890       -3.2648709211
 Na      -11.2063292081        1.1448772241        1.4729072563
