117

 C       -10.9420728611        1.0837988647       -2.5667694966
 C       -11.2068713265        0.4016151476       -1.2726792874
 O       -12.0252059360        0.8464466411       -0.5313117486
 C       -10.6409539231       -1.0519142989       -1.0654344052
 C        -9.3430869038       -0.6530489611       -0.1348483823
 O        -9.5035613893        0.2570423001        0.6787917426
 C        -7.9496373024       -1.3693484306       -0.3436766082
 C        -7.1217572498       -1.7757821396        0.8159703631
 C        -7.8203834491       -3.0637646568        1.5895062648
 O        -8.6899173732       -3.7964593474        1.1603874494
 C        -7.6553991004       -3.1034082167        3.1022270317
 C        -8.5579512444       -1.8815092033        3.7896294147
 O        -8.1878596542       -0.7555217500        3.8210690623
 C        -9.8141597892       -2.2164399921        4.4870191784
 C       -10.3562504102       -1.0852050812        5.4605881315
 C       -10.8524475421        0.0650980155        4.6498618193
 O       -11.5908204431       -0.1779952788        3.7016385255
 C       -10.6940440521        1.6468074112        5.1618352119
 C       -10.3897659468        2.6448813695        3.9141152488
 O       -10.0819345458        2.1562230152        2.8618869322
 C       -10.4287629604        4.1471270031        4.1572259081
 C       -10.8000822279        4.8326596370        2.8476423034
 C       -12.2440916115        4.3822100720        2.2782153048
 O       -12.5162917859        3.1786081642        2.3108737419
 C       -13.2710084476        5.3105649880        1.6686271927
 C       -13.0663767336        5.5485087839        0.0695545460
 O       -13.7953545945        6.2571275608       -0.5145616101
 C       -11.9830254911        4.8561927326       -0.6384632714
 C       -11.5950423269        5.5665967940       -2.0355557902
 C       -10.0282005723        5.8660257812       -2.2799583893
 O        -9.1555001740        5.0683291083       -1.8734598039
 C        -9.8376720575        7.1924207285       -3.1959465207
 C        -9.5678742205        8.4583952895       -2.2394293005
 O        -8.9935948308        8.2299151201       -1.1382535450
 C        -9.5889034120        9.9367331774       -2.7448897947
 C        -8.4336816744       10.1697439574       -3.6587585805
 C        -8.3239648621       11.5158567174       -4.4914524998
 O        -8.7751733801       12.5397454252       -4.0651011667
 C        -7.9360199817       11.3364757489       -6.1343682874
 C        -6.8813227929       10.2424472914       -6.5126357167
 O        -7.0523926251        9.0747949780       -6.1099321454
 C        -5.7694751204       10.6603302604       -7.5146517583
 C        -9.2227724640       10.9631627531       -6.8398370999
 C        -7.5035577389       12.6126361283       -6.7515247259
 C        -8.6270257136        6.8586838791       -4.1088306103
 C       -11.0685246961        7.5202804249       -4.0904808389
 C       -14.7653987149        4.8713363209        1.7944127107
 C       -13.2173130480        6.7898272032        2.2352833963
 C       -12.0404061323        2.0096552573        6.0125008468
 C        -9.4944641447        1.8189476490        6.1689867589
 C        -8.2502594805       -4.3725294674        3.5615264176
 C        -6.2018132654       -2.9698932727        3.5218642545
 C       -11.5409339452       -2.0383512330       -0.2165419830
 C       -10.1916676043       -1.6726100225       -2.4336482397
 H       -10.9234484798        2.1482899414       -2.4547698351
 H       -11.9087549826        0.9338050387       -3.0874258945
 H       -10.1094900000        0.8021619536       -3.1343099910
 H        -7.4454162779       -0.5311183081       -0.7674215491
 H        -8.2438183046       -2.2075707535       -0.9041038436
 H        -6.8617107986       -1.0019832625        1.4427687557
 H        -6.1392465420       -1.8796984730        0.3910897722
 H        -9.7902776625       -3.1866660068        5.0196783085
 H       -10.6120701623       -2.3040465323        3.7744060307
 H        -9.6316176810       -0.7106875166        6.2116510793
 H       -11.2027290375       -1.5271928215        6.0474177089
 H        -9.4563815122        4.4647908665        4.4544793603
 H       -11.2819029773        4.3763403941        4.8461314128
 H       -10.0100321648        4.6211003726        2.0117232662
 H       -10.6574202925        5.9148800871        2.8697200894
 H       -12.5118446586        3.9059425566       -0.8445792137
 H       -11.0841200702        4.5884237547        0.0057702783
 H       -12.2710482057        6.4017479509       -2.3617765385
 H       -11.8463625639        4.8039969936       -2.8516183185
 H        -9.5376485096       10.5159940617       -1.8180456135
 H       -10.4192120660       10.4325098487       -3.1319790251
 H        -8.4935168117        9.4194711116       -4.4317679250
 H        -7.3929616853       10.1309285489       -3.2476758185
 H        -5.0082011531       11.2656821995       -7.0594706390
 H        -6.2990543595       11.2990526938       -8.1380633974
 H        -5.5156501146        9.7907908628       -8.0827021553
 H        -9.1574695745       10.5838989958       -7.8631093654
 H       -10.0404877223       11.7084233843       -6.8750763440
 H        -9.7061714527       10.1241106168       -6.3788073575
 H        -6.5004872273       12.9117182905       -6.6095381951
 H        -8.1754306316       13.3475393340       -6.3812991043
 H        -7.5986168067       12.6140934724       -7.9122792197
 H        -7.6694450733        6.8944796446       -3.5608527162
 H        -8.6063674819        7.3862285269       -5.0872654415
 H        -8.6934549689        5.8031904243       -4.4107153875
 H       -11.8585770917        7.9883074886       -3.3961717784
 H       -11.6560210648        6.7751781138       -4.5392172307
 H       -10.8371336052        8.2798532317       -4.8837452636
 H       -14.8769622992        3.8067620130        1.9826420994
 H       -15.2180780015        5.1537278993        0.8370131630
 H       -15.2583763342        5.5040352148        2.5247577433
 H       -13.9583058502        7.3446270130        1.7582275027
 H       -12.2238571465        7.2558184526        2.1560630113
 H       -13.4007748147        6.6924035903        3.3151566284
 H       -12.9616755442        1.8962155304        5.5088560686
 H       -11.9417538998        3.0793766440        6.3738698658
 H       -12.0083481827        1.4869374753        6.8506742905
 H        -9.5080208652        2.4610038896        7.0598504204
 H        -8.5188730061        2.0007268206        5.6495730400
 H        -9.3196118706        0.8364588815        6.6557202911
 H        -7.9146211266       -4.5224148245        4.6155235111
 H        -7.6496733514       -5.1979277244        3.0525433564
 H        -9.3353964107       -4.5271460012        3.3979845947
 H        -5.6798070398       -2.1613076124        2.9625545310
 H        -5.6091987432       -3.9336534051        3.4552106425
 H        -6.2411147096       -2.6511188043        4.5707729701
 H       -11.0764394503       -2.8607585426        0.2706601320
 H       -12.2504929226       -2.5175807758       -0.8040143852
 H       -12.1565535042       -1.6620963433        0.6639627430
 H        -9.7123488711       -2.6770470927       -2.2657613972
 H        -9.3612935550       -1.1729300860       -2.9049038329
 H       -10.9460184954       -1.6526596032       -3.2144575367
 Na      -11.4876065626        1.0961921699        1.7064442395
