117

 C       -11.0010389733        1.0416217101       -2.5912683361
 C       -11.4805995993        0.2717919841       -1.3375440186
 O       -11.9774909463        0.8684705847       -0.3976866949
 C       -10.7200143948       -1.1412219645       -1.1062863804
 C        -9.3933234590       -0.6972057794       -0.1421579257
 O        -9.5242111617        0.2250292043        0.6497391311
 C        -8.0424372279       -1.4160310557       -0.3912255254
 C        -7.2318138033       -1.7970953974        0.8687935083
 C        -7.9612068278       -2.9432883431        1.6650358950
 O        -8.4916242210       -3.7563366462        0.8904743771
 C        -7.6874697608       -3.0175299900        3.2352404303
 C        -8.4996624473       -1.8329146158        3.8792411019
 O        -8.0746142278       -0.6852766317        3.7354884622
 C        -9.9689961604       -2.0674306791        4.4772693873
 C       -10.3819857816       -0.9746923219        5.4860709005
 C       -10.9486266810        0.2219623059        4.6829047869
 O       -11.6247369148       -0.0886607098        3.7573305413
 C       -10.6893849681        1.6664905499        5.1491854365
 C       -10.3342326045        2.6766425311        3.9688201934
 O       -10.0616689594        2.3147823391        2.8613220593
 C       -10.4399204500        4.2246792749        4.2115161592
 C       -10.8405416694        4.8353725999        2.8712576235
 C       -12.2872744474        4.4015703640        2.3664268261
 O       -12.5826607653        3.1810088410        2.5749004378
 C       -13.2594722698        5.4022691983        1.7266566558
 C       -13.0613684421        5.5719448089        0.0928020146
 O       -13.6860901452        6.4987975159       -0.3709876309
 C       -12.0226591454        4.5187925859       -0.8091653901
 C       -11.5559948200        5.0851904657       -2.1409945881
 C       -10.1365851843        5.8855012770       -2.3750999116
 O        -9.1228277870        5.3607569052       -2.0381492644
 C        -9.8592703497        7.2237129607       -3.2029334073
 C        -9.3948328929        8.3599599058       -2.1956330522
 O        -9.0971800888        8.1249133641       -1.0092682529
 C        -9.5643870727        9.8133463553       -2.7733953640
 C        -8.3676270145       10.0888991790       -3.6702103823
 C        -8.3148972435       11.3649200051       -4.5044772862
 O        -8.7478889826       12.4493272936       -4.1939434782
 C        -7.8296251053       11.2719407061       -6.0600358795
 C        -6.8341836350       10.0525390248       -6.6567862967
 O        -7.0819727472        8.9173791557       -6.4682332925
 C        -5.6327091487       10.5120244062       -7.4994454400
 C        -9.1005734400       10.8292155630       -6.8225949842
 C        -7.4952526401       12.6584944198       -6.7169891152
 C        -8.4831389428        6.9023995339       -3.9139210004
 C       -10.8641145028        7.6905757792       -4.1956735617
 C       -14.7388442390        4.8562091175        2.0842103262
 C       -13.1510950741        6.8560289423        2.2257298608
 C       -12.0258907083        2.2359772430        5.7521165243
 C        -9.5650567313        1.8393605298        6.1548175656
 C        -8.1826132885       -4.5486323200        3.5216048686
 C        -6.1347662976       -2.6969341612        3.6561354712
 C       -11.6013526140       -1.9190744696       -0.2579191517
 C       -10.2340695882       -1.7352458809       -2.4530139014
 H       -11.1623200857        2.0348207922       -2.3251454175
 H       -11.5160679476        0.9671230648       -3.5635413797
 H        -9.9188299972        0.8625878045       -2.6483183594
 H        -7.5439461575       -0.6369352308       -0.7812180023
 H        -8.4369704778       -2.2786253025       -0.9416654111
 H        -6.8130057534       -0.9612014797        1.3966628804
 H        -6.1801363185       -2.2637026788        0.5250126036
 H       -10.0176105486       -3.0524040420        4.9964999641
 H       -10.6903468055       -2.0915443290        3.7152222468
 H        -9.4158125721       -0.6573109546        6.0854540850
 H       -11.0814842555       -1.3279601534        6.2642602870
 H        -9.3524367088        4.5397226048        4.3330390082
 H       -11.2421311672        4.6509325708        4.9631507895
 H       -10.0795128175        4.6632253132        2.0734647206
 H       -10.7508896116        6.0058896064        2.8709634823
 H       -12.4498203820        3.4653220524       -0.7815712988
 H       -11.0976851674        4.5788515513       -0.0471600731
 H       -12.3076641712        5.8563221169       -2.3912234475
 H       -11.6896080294        4.4172305112       -2.9296789695
 H        -9.6157523982       10.4577484400       -1.8687246909
 H       -10.5670883720       10.1608716095       -3.1785418622
 H        -8.3404622721        9.2860460554       -4.4720998530
 H        -7.3840959371       10.0340546381       -3.2255038957
 H        -5.1366363142       11.3461806016       -7.1441240740
 H        -6.1261134679       10.8423790640       -8.4530965918
 H        -5.2159482937        9.5880560996       -7.7140452680
 H        -8.8371705972       10.4772513325       -7.8294646509
 H        -9.8355773748       11.5314444974       -6.9808107777
 H        -9.6961746291        9.8854447150       -6.5120255790
 H        -6.4536105060       12.9575034270       -6.5366322647
 H        -8.1849892972       13.4103710186       -6.4027042858
 H        -7.5034926957       12.5930170102       -7.8580600109
 H        -7.5847886269        6.8847115468       -3.2195950836
 H        -8.3516932475        7.4716122228       -4.8728064298
 H        -8.4734929849        5.8639747449       -4.2764061821
 H       -11.5774972580        8.3053444598       -3.6547295590
 H       -11.5270644664        7.0440456783       -4.7658690870
 H       -10.3995835607        8.3786234325       -4.9083950911
 H       -14.6783458273        3.7941796448        1.8729872202
 H       -15.3894999625        5.3149849003        1.3388512088
 H       -15.0885843898        5.1425750243        3.0592090264
 H       -13.8446353447        7.4807199381        1.5882400890
 H       -12.1345754789        7.2318403670        2.2605060770
 H       -13.5468156965        6.8173487596        3.2631272415
 H       -12.8879117250        1.9278278805        5.0574817266
 H       -12.0632836921        3.3009640955        5.9054386070
 H       -12.1312359817        1.8177872904        6.8041370210
 H        -9.7085960188        2.5292819021        6.9932629081
 H        -8.7077133853        2.1767491662        5.6578286080
 H        -9.2455880785        0.9506346454        6.6992847989
 H        -7.6699897819       -5.1591344492        4.3394030079
 H        -7.8647308602       -5.0869149689        2.6582482621
 H        -9.2972626292       -4.6512605737        3.6161822306
 H        -5.6976097235       -1.7108637723        3.2602224580
 H        -5.5305350714       -3.5692578180        3.3045847706
 H        -6.0970404846       -2.6203158950        4.7409237736
 H       -11.2557109279       -2.9566629645        0.0626882007
 H       -12.5234577994       -2.2908604596       -0.7394294372
 H       -11.9373985622       -1.5379817282        0.7023878912
 H        -9.7414202892       -2.6912664069       -2.3828712268
 H        -9.5776266922       -1.1216045139       -3.1407158620
 H       -11.1469331659       -1.8015247898       -3.0862666920
 Na      -11.7292435010        0.9907085214        1.8206153305
