117

 C       -11.1214280888        1.1119665004       -2.6369084360
 C       -11.2524205860        0.4030525458       -1.3023202458
 O       -12.0830642861        0.7938260178       -0.4505153895
 C       -10.7239032921       -1.0694933912       -1.0745185819
 C        -9.4874320590       -0.6889716974       -0.2202361438
 O        -9.5770883692        0.0322195628        0.7012220367
 C        -8.0994298110       -1.4224727576       -0.5974554858
 C        -7.3585083279       -1.5444098507        0.8179182825
 C        -7.8244567393       -2.7876768189        1.5667321127
 O        -8.3907818528       -3.7090940736        1.0219993641
 C        -7.7439209430       -2.9896007400        3.1630046090
 C        -8.5641984623       -1.8816770565        3.8178490621
 O        -8.0569231253       -0.7527068868        3.7383513909
 C        -9.9329165249       -2.0598581077        4.5065875108
 C       -10.2540723611       -0.9368418986        5.4402643892
 C       -10.9322000046        0.4022427712        4.7183965416
 O       -11.7531778883        0.1331914994        3.8027639996
 C       -10.7246299079        1.8259373708        5.1808549093
 C       -10.3805678593        2.7511931547        3.9151302245
 O        -9.9139330363        2.3166163489        2.8671628561
 C       -10.3589668062        4.2599906076        4.1291797366
 C       -10.9132674509        4.9424116210        2.8741082408
 C       -12.3084723085        4.4375522380        2.5207260426
 O       -12.6856011292        3.2824908007        2.7341140950
 C       -13.2096059128        5.4219227260        1.7620149887
 C       -12.9127866553        5.5240652964        0.1341699901
 O       -13.3871681961        6.4750871969       -0.4633184247
 C       -12.0672145430        4.6937217947       -0.7722435978
 C       -11.6086412907        5.0678126478       -2.2378276958
 C       -10.1854075312        5.8413510742       -2.4304901440
 O        -9.2642220264        5.3174341586       -1.8868450225
 C        -9.8445997976        7.2631327368       -3.2173735755
 C        -9.4670786893        8.3555171898       -2.0928767442
 O        -9.2146725218        8.0586550018       -1.0063067996
 C        -9.3754229438        9.7757062940       -2.7311818741
 C        -8.1361388252        9.9851309024       -3.8148974899
 C        -8.3257007310       11.2633360554       -4.7582327897
 O        -8.6716009887       12.2886890275       -4.2369764373
 C        -7.8132842824       11.1357064092       -6.2836829616
 C        -6.7592552764        9.9878371578       -6.6461875198
 O        -7.1445752884        8.8323854371       -6.6770760441
 C        -5.4820379263       10.3601373673       -7.4485981149
 C        -9.2163503421       10.6063939480       -6.8669250019
 C        -7.3952792879       12.6272188196       -6.5211847278
 C        -8.3674610674        6.8436998067       -3.8402449929
 C       -10.8088107522        7.7154572888       -4.2969655866
 C       -14.6202310078        4.8495938786        2.1839313512
 C       -13.0638925092        6.8468564567        2.3032937854
 C       -12.1345687964        2.2641072751        5.6102515984
 C        -9.5797056711        2.0242278113        6.2216714981
 C        -8.0226727027       -4.4933097015        3.6679943604
 C        -6.4062661107       -2.7000615695        3.6399805080
 C       -11.6703013935       -1.9421814794       -0.2729671431
 C       -10.3712025072       -1.8506199688       -2.3208324420
 H       -11.9653710635        1.8837950510       -2.6921036571
 H       -11.3990135769        0.4623634959       -3.4204633026
 H       -10.0768680244        1.5257483658       -2.7989095297
 H        -7.5790431415       -0.7037085657       -1.2835331800
 H        -8.5849242278       -2.3476057966       -0.8138583883
 H        -7.5448066085       -0.5317612176        1.5432319607
 H        -6.2309224910       -1.5102443782        0.9048039263
 H        -9.9385176025       -2.9574039801        5.0831975226
 H       -10.7730255148       -2.1742978563        3.7729124860
 H        -9.4585476707       -0.7833634136        6.1232509048
 H       -11.0983947158       -1.2833350896        6.0722444373
 H        -9.2302785062        4.5414065162        4.1605366708
 H       -11.0389764890        4.5858066214        4.9064852441
 H       -10.3031462159        4.8093359961        2.0175016115
 H       -10.9097833354        6.0377867285        2.8310794627
 H       -12.7473002098        3.7819940366       -0.9680752916
 H       -11.2246451163        4.3480444795       -0.2093148127
 H       -12.4284498555        5.3200919541       -2.8270430687
 H       -11.3728118646        4.0943623948       -2.5854048914
 H        -9.3808816872       10.5778395113       -1.9542843578
 H       -10.4598611070        9.9885169770       -3.0946755441
 H        -7.7820508329        9.1339218156       -4.4261079556
 H        -7.1904334336       10.2696416143       -3.3290923926
 H        -5.2292396419       11.3923976874       -7.1685715102
 H        -5.6315585149       10.2693220680       -8.5476293893
 H        -4.8913735645        9.4927870999       -7.1665681917
 H        -9.3433957389       10.5022714685       -7.9339621621
 H       -10.0242915302       11.3021303487       -6.5912644923
 H        -9.5410295243        9.6137551439       -6.5923186798
 H        -6.4349829192       12.7122548739       -5.9007999176
 H        -8.1874077902       13.3119931882       -6.0694100335
 H        -7.1552421437       12.9612847631       -7.4413358582
 H        -7.5829358446        6.8215589849       -3.0836430405
 H        -8.1790735410        7.4479645494       -4.7090333149
 H        -8.2843504479        5.7990296186       -4.2632844696
 H       -11.7294550648        8.1379787686       -4.0411943402
 H       -11.0624210784        6.8786931944       -5.0179098678
 H       -10.3428008362        8.4445766165       -4.9398493428
 H       -14.7294310526        3.9637412565        1.5748786544
 H       -15.3762836712        5.5905201163        1.9738812057
 H       -14.6173435835        4.6523721340        3.2631954834
 H       -13.7639658250        7.5110760739        1.6801128124
 H       -12.0167278894        7.1284137869        2.0798573106
 H       -13.2897035819        6.9682572460        3.3924571741
 H       -12.6936952413        1.9758299520        4.6765471337
 H       -12.3518236025        3.2759288771        5.9280884376
 H       -12.5344922778        1.5749958301        6.5338471614
 H        -9.7065246009        2.9668737794        6.6907406454
 H        -8.6115249167        2.0756025856        5.7817874350
 H        -9.5481540863        1.3791755540        7.0334649629
 H        -7.4043255589       -4.8556825949        4.4555465404
 H        -7.8276859805       -5.1946327942        2.8785927707
 H        -9.0549255763       -4.5322124507        3.9846107049
 H        -6.2249297217       -1.6186682659        3.5262783921
 H        -5.7896787218       -3.2428367975        2.9406055897
 H        -6.1110590436       -2.8771876368        4.7011977708
 H       -11.3076618959       -3.0195730153       -0.2552892011
 H       -12.6832908548       -2.2684215577       -0.7070193842
 H       -11.8606260595       -1.7935772542        0.7427642058
 H       -10.1530328404       -2.8561131029       -1.9788020442
 H        -9.6789369782       -1.5851752799       -3.1525894323
 H       -11.3457525670       -1.9627871823       -2.8321076967
 Na      -11.9082977849        0.9410525013        1.8849990215
