117

 C       -11.6035423459        0.7456195433       -2.8259217311
 C       -11.7978794806        0.3260314091       -1.3679688858
 O       -12.2855031541        1.1334326613       -0.5557341473
 C       -11.1009158586       -0.9332799919       -0.9405311570
 C       -10.0097724346       -0.6721950822        0.1363930059
 O       -10.1347650325       -0.3743980091        1.2597823240
 C        -8.5406516733       -1.0138894511       -0.4275199667
 C        -7.6858505234       -1.4222049352        0.8249976590
 C        -7.9512365693       -2.6509020761        1.5558452670
 O        -8.2682698481       -3.6313934851        0.9448646766
 C        -7.6984253615       -2.6703928773        3.2268563437
 C        -8.4390178335       -1.3955935459        3.8176084563
 O        -8.0147842609       -0.2596463959        3.6387123241
 C        -9.6637038281       -1.7056831917        4.7704933066
 C       -10.3088671542       -0.6310040038        5.6741259035
 C       -10.9486544644        0.5162190132        4.8191830828
 O       -11.6140912241        0.0892375792        3.8578370453
 C       -10.8447778192        2.0191811454        5.1142068890
 C       -10.3183500508        2.7292768891        3.9149917914
 O        -9.9745606860        2.0981410913        2.9411467446
 C       -10.0746479356        4.2167041311        3.8830234599
 C       -10.5193506245        4.8776318883        2.5682996369
 C       -12.0182113708        4.6034833563        2.2232209308
 O       -12.5035542962        3.4695881518        2.2528911234
 C       -12.9170846990        5.6951934698        1.7101503321
 C       -12.7358282923        6.1364883688        0.1411345479
 O       -12.9507270790        7.1923565353       -0.2883909465
 C       -12.2824087449        4.9859413968       -0.7125676266
 C       -11.6127551264        5.3943068873       -2.0204745014
 C       -10.0479773246        5.6967423845       -1.9621860516
 O        -9.4363426839        5.2082951129       -0.9968977100
 C        -9.5148589062        6.5819341945       -3.1141016105
 C        -9.3345075402        8.0595300295       -2.3506843910
 O        -9.8624224029        8.0134167260       -1.2829105117
 C        -8.7485763681        9.3188523025       -2.8445738282
 C        -7.9294988934        9.3131026612       -4.2646175353
 C        -8.0495896863       10.6775637906       -4.8986652702
 O        -8.5612670017       11.6188153720       -4.3481179146
 C        -7.7701255230       10.8026211458       -6.5183209503
 C        -6.7556893738        9.7329584605       -6.7366509978
 O        -7.2409794392        8.5837512656       -6.9294226157
 C        -5.3031863896        9.8283891286       -6.6144287601
 C        -9.1005516942       10.5084084837       -7.0976604536
 C        -7.2065367033       12.1910619439       -6.7929218207
 C        -8.3288410402        5.9570781839       -3.7045670230
 C       -10.5481713328        6.9744083890       -4.1667623655
 C       -14.2519824924        5.0089870601        1.5634941459
 C       -13.0415101668        7.0386755954        2.5268207993
 C       -12.2761316758        2.6456689241        5.3871600756
 C        -9.9560316690        2.2401412529        6.2906588460
 C        -8.2074449036       -4.0285742128        3.7962178584
 C        -6.1896231239       -2.4508549674        3.5337747868
 C       -12.3260551293       -1.8913273335       -0.4180334237
 C       -10.5189311465       -1.8335238998       -2.1420223914
 H       -11.6346729659       -0.1479993323       -3.4885843381
 H       -10.6445517751        1.1265471413       -2.9913825936
 H       -12.2806403374        1.5499345966       -3.0751993208
 H        -8.1732081070       -0.0101647328       -0.7070699472
 H        -8.5163045756       -1.8475194240       -1.0294658914
 H        -7.4779098999       -0.4975351624        1.6044664234
 H        -6.6699592832       -1.5471062811        0.2935507425
 H        -9.2659942671       -2.3654466345        5.4856269618
 H       -10.4355695216       -2.3001043666        4.2262169675
 H        -9.5688856050       -0.1628172419        6.2639393340
 H       -10.9911214335       -1.1080696166        6.4726810211
 H        -8.9009568244        4.4157291556        4.0075244109
 H       -10.5920367893        4.8567772916        4.6826574931
 H        -9.9024729596        4.5922988090        1.6255275252
 H       -10.4096221970        5.9520334070        2.6682835749
 H       -13.1761721935        4.2309559514       -0.9749217784
 H       -11.4864445248        4.3446044786       -0.2318926288
 H       -12.1696024174        6.1791949423       -2.4360768782
 H       -11.7771861475        4.5416767021       -2.6489007734
 H        -7.9784560440        9.3642135595       -2.0113693484
 H        -9.5662035588       10.1180665397       -2.6940183747
 H        -8.1830799455        8.5766076183       -5.0196263819
 H        -6.8416017925        9.1089660745       -4.2510162832
 H        -4.8399339474       10.2523943310       -7.5088255645
 H        -5.0949814226        8.8678414412       -6.3590218532
 H        -5.1114434709       10.4608803452       -5.7640001259
 H        -9.1834709919       10.5208950272       -8.1913724206
 H        -9.9125419061       11.2997149442       -6.8616267075
 H        -9.5154748115        9.5990890110       -6.8188291024
 H        -6.2074248952       12.1691064916       -6.3492104233
 H        -7.7178562392       12.9709086558       -6.1642989393
 H        -7.2780101051       12.4650942562       -7.8023888545
 H        -7.6021028322        5.7113529092       -2.9173209292
 H        -7.8615709843        6.4589923559       -4.5591679863
 H        -8.5820671050        4.8809763743       -4.0403947123
 H       -11.0870596487        7.8563105106       -3.9513173577
 H       -11.2025105440        6.2024297488       -4.6195646046
 H       -10.0053417040        7.3439101311       -5.0176518514
 H       -14.1212793115        4.0224724855        1.1473118191
 H       -14.7959241115        5.6636138231        0.8877414919
 H       -14.7527532911        4.8906931426        2.5347275255
 H       -13.6890252690        7.7432194064        2.0068321803
 H       -12.0355814281        7.4986033944        2.6657612358
 H       -13.6139370830        6.7517634374        3.4107412193
 H       -13.1111875855        2.2607119550        4.7440764544
 H       -12.1497712647        3.8265564195        5.1444228158
 H       -12.4869582456        2.4476511673        6.4278839660
 H        -9.9748776140        3.2992561385        6.5624577905
 H        -8.8806077215        1.9452168225        6.2286188198
 H       -10.3378270083        1.7426244356        7.1797704893
 H        -8.3633473818       -3.7057487476        4.8203177319
 H        -7.4141714827       -4.8639485727        3.8776735536
 H        -9.1755267749       -4.3987198473        3.3725584644
 H        -5.9925413880       -1.3465725060        3.4240071431
 H        -5.5637222533       -3.1314831486        2.9109387258
 H        -5.9609579524       -2.6968424612        4.6318634047
 H       -12.0143427150       -2.7981187443        0.1029513708
 H       -13.0218257714       -2.4383202651       -1.0644745074
 H       -12.8708144088       -1.3139409637        0.3557199853
 H       -10.2498443126       -2.8495323703       -1.8531055083
 H        -9.7654391464       -1.2650367019       -2.6876146490
 H       -11.2942026965       -2.0674304351       -2.8746146796
 Na      -11.6664157554        1.3495822809        1.7481582780
