117

 C       -12.0706676219        0.7410113935       -2.8033216878
 C       -11.7258684808        0.3784859065       -1.3902449635
 O       -12.1055659990        1.1871239417       -0.5894574038
 C       -11.2001597917       -1.0082565841       -0.9317240522
 C       -10.1364507933       -0.9314683003        0.1486843715
 O       -10.5062416881       -0.6223179433        1.3145626383
 C        -8.7013487321       -1.0931501697       -0.2351390461
 C        -7.7037760843       -1.0912483729        0.9492245331
 C        -7.9645082962       -2.2996983752        1.7969676245
 O        -8.3434382850       -3.2737161993        1.2020195109
 C        -7.6998321884       -2.4601986832        3.2348501073
 C        -8.5288779199       -1.3178668387        3.9038976855
 O        -8.1392574246       -0.1833855829        3.8418060287
 C        -9.7110973313       -1.7185471247        4.8943022378
 C       -10.1718409110       -0.4573082667        5.6075018209
 C       -10.8552923745        0.6179930718        4.7463615410
 O       -11.5911086349        0.2774350707        3.8702385936
 C       -10.8027446793        2.2001885624        4.9969867343
 C       -10.0976728855        2.8941665624        3.8029703574
 O        -9.5840873774        2.2129289655        2.9247524550
 C       -10.1454688739        4.3947976973        3.7465863379
 C       -10.5183900492        5.0068442661        2.3814024003
 C       -11.9529536651        4.6756605406        2.0519424610
 O       -12.3430513305        3.5067309071        1.8593900821
 C       -13.0513357293        5.7509786482        1.8691276402
 C       -12.7396524107        6.2254733314        0.2302632209
 O       -12.4763633525        7.3809044974       -0.0219289797
 C       -12.4619954987        5.0844632267       -0.7452598133
 C       -11.6232643099        5.3129387156       -2.1515178591
 C       -10.1808053890        5.5224584833       -2.0271829240
 O        -9.4765460215        5.2268544834       -1.1043727134
 C        -9.4557444510        6.4682478685       -3.0002553219
 C        -9.2924931962        7.7882427902       -2.2746811169
 O        -9.9143301426        8.0533892852       -1.2526917990
 C        -8.4733437771        9.1087611480       -2.8713990105
 C        -8.3682555897        9.1892326019       -4.3659860377
 C        -8.0428159138       10.5672679184       -4.9085819165
 O        -8.3492235848       11.4857374866       -4.2225650080
 C        -7.7181452213       10.5534824209       -6.4321587159
 C        -6.7204684166        9.4221305819       -6.9160982632
 O        -7.0020895093        8.3482579204       -7.3043945986
 C        -5.2235952399        9.5007556433       -6.4185361358
 C        -8.9521173134       10.4130256353       -7.4262346757
 C        -7.1798820934       11.9036284503       -6.7239157751
 C        -8.0212159758        5.8168915580       -3.4029430233
 C       -10.1484009767        6.6003844120       -4.3329857775
 C       -14.6204176957        5.3640910392        1.7619436739
 C       -12.8901269309        6.8913698701        2.8159283630
 C       -12.3200609087        2.4749872253        5.2114937266
 C       -10.1097090481        2.5939921767        6.2518670833
 C        -8.1843048466       -3.9217698184        3.6896248827
 C        -6.2267930919       -2.3287016311        3.3587921935
 C       -12.4070471840       -1.6718410638       -0.2299847827
 C       -10.8458011302       -1.9186791727       -2.2172995223
 H       -11.7370435249        0.0226165605       -3.5399938900
 H       -11.3778734209        1.6382292436       -2.9963227961
 H       -13.1103931169        1.1534525771       -2.9613340312
 H        -8.4655041303       -0.0911254231       -0.6651534096
 H        -8.8830170517       -2.1028424557       -0.8035248432
 H        -7.9581827322       -0.1965571394        1.3792965131
 H        -6.6806387270       -1.0837376256        0.7104975254
 H        -9.1314235193       -2.3769428361        5.6748209603
 H       -10.5174871295       -2.3581544932        4.5984662544
 H        -9.4086719503        0.0475228634        6.2631419196
 H       -10.8497039763       -0.6961617558        6.3392553847
 H        -9.2380042433        4.7841364893        4.0126416227
 H       -10.7613942453        4.7980467912        4.4738629280
 H        -9.9503172034        4.6238435019        1.6291031180
 H       -10.4263955876        6.1141472553        2.4208564998
 H       -13.3692279449        4.7509702158       -0.9758815623
 H       -11.9631627931        4.3260343164       -0.2287418900
 H       -12.2063079373        6.0472401325       -2.8064319646
 H       -11.6089631571        4.3697336813       -2.7092268301
 H        -7.4830841443        8.9303439420       -2.4337724785
 H        -9.0605610902        9.9323508613       -2.5806186921
 H        -9.2526044449        8.7056467630       -4.8321949478
 H        -7.6234659783        8.5597999042       -4.8126962005
 H        -4.6886950658        9.2635242855       -7.3538609667
 H        -5.1986196458        8.5877085939       -5.6718275883
 H        -4.8841953207       10.4728220019       -5.9931506762
 H        -8.6296559776        9.9917131244       -8.3604411629
 H        -9.4236604955       11.2433654216       -7.7451191221
 H        -9.8284669751        9.7658946196       -7.0735609247
 H        -6.1717236052       12.0250527703       -6.3057100251
 H        -7.7667150255       12.6487259008       -6.2314349967
 H        -7.3013210723       12.0022286619       -7.7973397645
 H        -7.5839473832        5.2164301397       -2.5718062316
 H        -7.2699801493        6.5900084173       -3.6594798604
 H        -8.0943230844        5.1552242375       -4.2379352442
 H       -10.9459401388        7.3682076419       -4.3617840340
 H       -10.6560718392        5.6333783203       -4.4092043565
 H        -9.6891902052        6.6781407561       -5.3103171494
 H       -14.6668917969        4.5487914631        1.0306109411
 H       -15.2311684728        6.2222648958        1.4814519068
 H       -14.8419618313        4.8902510999        2.6958239463
 H       -13.0441360005        7.8244807886        2.1972959151
 H       -11.8668036237        6.9099029512        3.0959050685
 H       -13.6572835228        6.8419996708        3.6067595926
 H       -12.9035435429        1.8246154138        4.6177715256
 H       -12.5716246573        3.3955212376        5.0038260910
 H       -12.5148482018        2.1652999420        6.2794127474
 H       -10.7506165955        2.9694866731        7.0298174753
 H        -9.4032253240        3.3320320383        6.0937726028
 H        -9.4946909886        1.8040143402        6.6282690039
 H        -7.6117062347       -4.4554286343        4.4525312192
 H        -8.0901600418       -4.3780644750        2.7933929033
 H        -9.2280786490       -3.9692388924        3.8717319979
 H        -5.8465403643       -1.3440107623        3.1139332792
 H        -5.8381623184       -3.0862862897        2.7133226365
 H        -6.0153340358       -2.6279994460        4.3695767837
 H       -12.4703670057       -2.7388448563        0.0028609656
 H       -13.2827639838       -1.6485752232       -0.9085036034
 H       -12.7165791375       -1.1975326303        0.6405226437
 H       -10.5645461664       -2.9364699847       -1.9864825829
 H       -10.1239300865       -1.4348430319       -2.8826296068
 H       -11.7756777439       -2.0534077902       -2.7818180906
 Na      -11.7879713566        1.2574819504        1.7547115787
