117

 C       -12.2147169031        0.7088242641       -2.8624103620
 C       -11.8060453870        0.4384834459       -1.3857106656
 O       -11.8975997354        1.1768687057       -0.4479728488
 C       -11.4207176249       -1.0051308499       -1.0616197388
 C       -10.2409357822       -0.9059213355        0.1001773763
 O       -10.4795264730       -0.7980262512        1.2819372733
 C        -8.7268071513       -0.9320036423       -0.3419201278
 C        -7.8325750821       -0.8069898567        0.9745060313
 C        -8.1068626657       -2.1591238726        1.7541410620
 O        -8.4723434823       -3.1620282883        1.1385221936
 C        -7.6811829728       -2.4430147227        3.3186524139
 C        -8.4154109904       -1.3594041360        4.2604743069
 O        -8.2427409904       -0.1893835279        3.8999178340
 C        -9.8458345173       -1.5879367076        4.9566943786
 C       -10.0714042912       -0.2830031979        5.7658384198
 C       -10.7712114106        0.6068007938        4.7378468566
 O       -11.4840917992        0.1531553976        3.8646984389
 C       -10.8404543181        2.1961444976        4.9624037815
 C       -10.2118695418        3.0048559573        3.6794656480
 O        -9.4617053452        2.3569630775        2.9647519666
 C       -10.1599715082        4.5681834650        3.6317307802
 C       -10.6466433151        5.0690359876        2.2649529144
 C       -12.1086622215        4.6127508766        2.0250459940
 O       -12.4023742476        3.4247389553        1.7272223161
 C       -12.9950556372        5.8586362247        1.7675338767
 C       -12.4788413391        6.2446988555        0.3011603342
 O       -12.2853941908        7.3761938294        0.2027676625
 C       -12.5459061608        5.0579544833       -0.8008266721
 C       -11.8486598571        5.4638679524       -2.0454110572
 C       -10.1447540114        5.5524971580       -1.8838037540
 O        -9.6279252011        4.9544595573       -0.9882665752
 C        -9.4193208543        6.4224951233       -3.0842945351
 C        -9.3633478341        7.8851316569       -2.2642309212
 O        -9.8734483783        7.9037696277       -1.2376471665
 C        -8.3596011077        8.8820326381       -2.8606481680
 C        -8.5558828359        8.9049297484       -4.3275207778
 C        -8.1632975639       10.4829647908       -5.0654917276
 O        -8.0919333883       11.3966187960       -4.2997387887
 C        -7.6749840045       10.5188474563       -6.5884161945
 C        -6.6339506895        9.2368655833       -6.7768627265
 O        -6.9699612681        8.3939533828       -7.5527872953
 C        -5.1322606863        9.3404748177       -6.2548952909
 C        -8.9342369244       10.3198982628       -7.5111004531
 C        -6.9935035351       11.9082906145       -6.9066884978
 C        -7.9210723858        5.9014289160       -3.0629748683
 C       -10.0813689320        6.3365903145       -4.5052848629
 C       -14.4832222078        5.4490665637        1.7762630111
 C       -12.7428696324        7.0244855744        2.8020449607
 C       -12.4288377261        2.5602529544        5.0123477692
 C       -10.0394942266        2.7231871291        6.2613289766
 C        -8.0741249350       -3.9561712063        3.7705504425
 C        -6.1242957742       -2.2466989421        3.4375579585
 C       -12.5633988242       -1.6071420044       -0.2328675706
 C       -11.0643964694       -1.9904287094       -2.2320240298
 H       -11.8208501639       -0.0545317540       -3.5739871799
 H       -11.9159679866        1.6426575754       -3.2110719585
 H       -13.3461808508        0.7793759548       -2.8675874452
 H        -8.4602401157       -0.2731023750       -1.1213477675
 H        -8.7993843709       -2.0186410912       -0.4367616942
 H        -8.1222877641        0.1680006294        1.5563482625
 H        -6.8185641665       -0.9340657433        0.8294789145
 H        -9.7858836435       -2.5085803415        5.6054225380
 H       -10.6312567682       -1.8281353966        4.2202374952
 H        -9.2543006149        0.1705845870        6.3231538127
 H       -10.8093406500       -0.3583788460        6.6085082893
 H        -9.0835438412        4.9209542596        3.8507048053
 H       -10.6233727521        5.0513028510        4.4523394945
 H       -10.0098455218        4.6261718349        1.4285246697
 H       -10.6835060610        6.1718713663        2.1565887485
 H       -13.6240148839        4.8062462325       -0.9887830415
 H       -12.0331178489        4.2019055058       -0.4112279611
 H       -12.4734620862        6.3354114155       -2.4094699963
 H       -11.9733939412        4.6311242379       -2.8238840383
 H        -7.4678864820        8.3488357487       -2.6319560029
 H        -8.5915986045        9.8760555431       -2.4918211661
 H        -9.6470193655        8.6420952047       -4.4883342624
 H        -8.0884544024        8.0385053700       -4.7748558434
 H        -4.5792938342        8.9345297372       -7.1485585962
 H        -4.9768916514        8.7595161474       -5.3633214710
 H        -4.8987828339       10.4064414627       -6.1643973043
 H        -8.7412923073       10.0559580322       -8.5290588131
 H        -9.4940062046       11.2923255108       -7.6925466821
 H        -9.7295087219        9.6980041828       -7.1393809752
 H        -6.1833673759       12.0539027592       -6.1593455223
 H        -7.7179246264       12.7270737147       -6.6886925583
 H        -6.7019896145       11.9187029952       -7.8698115700
 H        -7.8396061671        5.4854635993       -2.0743770494
 H        -7.1438097801        6.6086876217       -3.0734608451
 H        -7.6355692492        5.1419107173       -3.7787056378
 H       -11.0639365736        6.8090384050       -4.4604451767
 H       -10.2280873441        5.3258820446       -5.0722778059
 H        -9.5562906091        6.8687285496       -5.3117525289
 H       -14.6607459450        4.9775913816        0.8151191346
 H       -15.1430263069        6.3075007217        1.8930494456
 H       -14.5912181858        4.6581490167        2.5276811905
 H       -12.8771187098        7.9865256258        2.2682623847
 H       -11.7470413481        6.9866521627        3.1311836635
 H       -13.4423670420        6.9016325391        3.5673194311
 H       -12.7885882662        2.4493984446        4.0690639819
 H       -12.5115102068        3.6730631766        5.2312530109
 H       -12.9771451900        1.9474537922        5.6449139707
 H       -10.6377223102        2.5608356141        7.1720808874
 H        -9.7935690688        3.8096882189        6.2373532367
 H        -9.0638750936        2.2496126322        6.3435084008
 H        -7.3703367626       -4.4490587377        4.3738038742
 H        -8.1413597950       -4.3804982565        2.7820622694
 H        -9.0762779723       -4.0549268534        4.1399048526
 H        -5.8376627696       -1.3228905721        2.9333588020
 H        -5.7235816767       -3.0411725669        2.8866163467
 H        -5.8108618510       -2.3190290701        4.4961763346
 H       -12.5191159995       -2.6598631335       -0.0196064766
 H       -13.5610705726       -1.5526306767       -0.7319797128
 H       -12.6968298605       -1.1871377428        0.7035169842
 H       -10.8532385860       -2.9440582073       -1.8044939304
 H       -10.2789529258       -1.7278343427       -2.9653383740
 H       -12.0081758355       -2.1250988745       -2.7896664323
 Na      -11.7979780112        1.2086598567        1.8048366019
