117

 C        -7.3612793662       -6.1087044034        2.6007494245
 C        -8.8537969057       -5.8340543314        2.6786634395
 O        -9.7255496671       -6.6543793268        2.7502411410
 C        -9.2276020201       -4.2367799181        2.8306092330
 C       -10.1541960676       -4.0508292271        1.5398205943
 O        -9.6824083496       -4.0986017888        0.4672715777
 C       -11.6190741612       -3.4688910313        1.8038179912
 C       -12.8073944804       -3.4935792360        0.6630892208
 C       -12.7436789836       -2.1952735207       -0.1111854814
 O       -12.1349646867       -2.1189427220       -1.1650036216
 C       -13.3185180952       -0.8236128543        0.3462512890
 C       -12.0356405579        0.0496011450        0.6290309921
 O       -11.4159852581       -0.1512887571        1.6501779425
 C       -11.5619476204        1.0581298951       -0.4995629244
 C       -10.0859825339        1.2998367596       -0.3948594237
 C        -9.6864659941        2.5918824852       -1.2110293455
 O        -9.3546465458        3.5655408837       -0.6111895629
 C        -9.2661652555        2.5210769247       -2.7853187610
 C       -10.4597166551        3.2864219202       -3.4872337388
 O       -11.4883165328        3.3953330170       -2.8474136732
 C       -10.3377114844        4.0010901577       -4.7641997733
 C       -11.0875891485        5.4108250156       -4.6874568789
 C       -10.6144812642        6.1522783224       -3.3853849338
 O        -9.5916570238        5.7065830784       -2.8861497675
 C       -11.5902009904        7.1365528271       -2.6138806451
 C       -10.6477210360        8.0917639348       -1.9158661051
 O        -9.9597734919        7.6618762630       -1.0390240029
 C       -10.3408851801        9.4800547004       -2.2942824115
 C        -9.3783657194       10.0739598781       -1.2679234731
 C       -10.2496036200       10.5214615289       -0.0809866097
 O       -11.4284996139       10.5739420863       -0.1774621584
 C        -9.4296437826       11.1790622900        1.1236420064
 C        -8.5222201121       10.1004023269        1.6030925633
 O        -7.4521435453        9.8793707394        1.0147285089
 C        -8.8791913592        9.1875457323        2.8186268757
 C        -7.7871061189        8.1948504045        3.1146876792
 C        -7.6839288723        7.0906441452        2.0292534723
 O        -8.6692290522        6.8579309764        1.3501978176
 C        -6.4739998317        6.0548011405        1.9853069535
 C        -5.7126529297        6.5206855653        0.6717211514
 O        -6.1087976172        6.1064154999       -0.3975314791
 C        -4.4817080064        7.4383613265        0.7735712487
 C        -5.5520836785        6.0879648783        3.2245691480
 C        -7.0860531435        4.6588778718        1.7578284197
 C        -8.6001201567       12.3714420144        0.6118788303
 C       -10.5323033380       11.5919923382        2.1668127574
 C       -12.5920997144        7.8646897242       -3.6005697856
 C       -12.4693802938        6.3254487219       -1.6693362148
 C        -7.9484438032        3.1897115494       -2.8754174826
 C        -9.2619795454        1.1407264436       -3.3599954691
 C       -14.1682639094       -0.2340806998       -0.8020653711
 C       -14.1757949344       -0.9980513264        1.5955495605
 C        -9.8185044263       -3.8689032285        4.1380018104
 C        -7.9763866250       -3.3102434540        2.5648568699
 H        -6.8983858952       -6.2770635533        1.5955149603
 H        -7.0565294612       -7.0701838069        3.1000833505
 H        -6.8459406615       -5.2675530732        3.0510994204
 H       -11.4271943284       -2.3984484224        1.9511927297
 H       -12.0725653891       -3.8765697041        2.6770700987
 H       -13.7813363970       -3.5404427219        1.2147274459
 H       -12.7769648217       -4.2764858900       -0.0456237917
 H       -11.9805559012        2.0200613037       -0.5222383567
 H       -11.7999773104        0.5918155757       -1.4500184889
 H        -9.4326209441        0.5359847483       -0.8866882029
 H        -9.7923477363        1.4606330027        0.6879502195
 H       -10.8868400844        3.3609809022       -5.4742786699
 H        -9.3039922965        4.0936899798       -5.1606876002
 H       -12.2126359029        5.2787879016       -4.6840845935
 H       -10.9038046906        6.0348350017       -5.6072886709
 H       -11.2433746426       10.1090941458       -2.2444998564
 H        -9.9530063394        9.4616772557       -3.3242408769
 H        -8.8504900852       10.9179531539       -1.6036168844
 H        -8.6885587069        9.2366501821       -1.1059902831
 H        -9.7346443954        8.5298855389        2.5277630426
 H        -9.1197329954        9.6825594626        3.7783952294
 H        -8.0288001124        7.6141284310        4.0505395309
 H        -6.9159378909        8.7766300902        3.4041457673
 H        -4.9610835985        8.4591291804        0.8090252141
 H        -3.8959832285        7.4226496164       -0.1729919857
 H        -3.9062935906        7.4323738758        1.6610072685
 H        -6.0502846164        5.6763034131        4.1096627728
 H        -5.2419517835        7.0839495991        3.4528777419
 H        -4.7634009559        5.4209395350        2.9896137198
 H        -6.3063054254        3.8423659609        1.8415306641
 H        -7.5111915945        4.6527442353        0.8218430716
 H        -7.7895856037        4.2878805087        2.5651034604
 H        -8.3070574617       13.0727320920        1.3507742444
 H        -9.0853391572       12.7239316515       -0.2522836507
 H        -7.6435892600       12.0208793338        0.1714764184
 H       -10.0435984875       11.7889726273        3.1193253076
 H       -11.2245925467       10.8422212020        2.3645991688
 H       -11.1144994231       12.4448762103        1.7920262218
 H       -13.3938686303        7.1800873402       -3.8366983554
 H       -12.0117794352        8.2193367606       -4.4703095701
 H       -13.0544163097        8.8311539356       -3.1217010782
 H       -13.2342905409        5.7549583672       -2.3369738781
 H       -13.1967632162        6.9817327237       -1.1577030533
 H       -11.9111720341        5.5800113176       -0.9766982363
 H        -7.7677127048        3.5548248106       -3.8423885647
 H        -7.1288166508        2.4099577710       -2.7760484735
 H        -7.8645463124        3.9991262189       -2.1167190069
 H       -10.1683587415        0.5907986670       -3.0524971119
 H        -8.4004394148        0.5177390019       -2.9358377877
 H        -9.1389887374        1.1741732370       -4.4234224910
 H       -14.9566257399       -0.8708778414       -1.1515893024
 H       -13.7471518098       -0.0281292129       -1.7733916702
 H       -14.6592299788        0.6739792411       -0.4010928135
 H       -15.0991853357       -1.5620855041        1.4691540070
 H       -14.6080924743        0.0225218389        1.7899936928
 H       -13.6768347133       -1.4500390444        2.4740685508
 H       -10.5827915430       -4.5447846183        4.4669708851
 H       -10.2682220193       -2.8741101738        4.1620559862
 H        -8.9712439259       -3.9530289720        4.7560521438
 H        -7.6022355034       -2.9831689672        3.5518644248
 H        -8.4199496591       -2.3379920810        2.2201683390
 H        -7.2836436332       -3.6225656989        1.8173796972
 Na       -8.5349229532        5.6647979267       -0.7294714353
