117

 C        -3.1419267907        4.5116519092        7.9106446965
 C        -3.7233466743        5.7854530766        7.6061594626
 O        -3.1204353193        6.7600743118        7.2508858743
 C        -5.3838643714        5.8711855267        7.7175871129
 C        -5.9578469015        4.9718502720        6.6062199042
 O        -6.0345025843        3.7931207074        6.7032242643
 C        -6.4456874817        5.7208850881        5.3762404806
 C        -6.7782746810        4.7893204039        4.2182242916
 C        -6.9647914171        5.3258995029        2.7571740524
 O        -8.0566172417        5.6167789590        2.2540644915
 C        -5.7896073703        5.0840962455        1.7174211154
 C        -6.0552338168        3.5875220219        1.2335085026
 O        -5.2396676071        2.7671544962        1.6000551314
 C        -7.3288599465        3.1975645120        0.4252940290
 C        -7.0970070065        1.9848929715       -0.4910202396
 C        -8.3555321401        1.1671471168       -0.6812975613
 O        -9.2747355409        1.5611548268       -1.4084925859
 C        -8.6321744880        0.0138554107        0.3252174973
 C        -9.6416044876        0.5950112220        1.4726667896
 O        -9.1513342576        1.0601613924        2.4723935246
 C       -11.2391438748        0.3361956194        1.4006114707
 C       -12.0329446948        1.6024145653        1.7243728390
 C       -11.7484633269        2.8090248635        0.7537381833
 O       -10.6894015136        2.9946101438        0.2055831433
 C       -12.9014362772        3.7545067434        0.3434827385
 C       -13.8437651998        2.9808284456       -0.7632437479
 O       -13.3606573709        2.1204450175       -1.4826534342
 C       -15.4038211460        3.3989768451       -0.8320336398
 C       -15.7046809060        3.5242730191       -2.2821726408
 C       -15.0950351471        4.8289875483       -2.8552377491
 O       -14.7698165925        5.6496744902       -2.0660632627
 C       -14.8944659438        5.1453922350       -4.4362162037
 C       -13.6169501060        4.8143199310       -5.0323006101
 O       -13.2637132048        3.6488260194       -5.1223023405
 C       -12.6154504184        5.8957144136       -5.3324192953
 C       -11.2960491605        5.3143796242       -5.9423710818
 C       -10.8178210700        4.1935264480       -4.9952761983
 O       -10.7318324331        4.3967545449       -3.8242766933
 C       -10.3318216920        2.9238361156       -5.7009288289
 C       -11.1918471180        1.7848782124       -5.3538533686
 O       -11.6527234062        1.6139013861       -4.2040049659
 C       -11.6229657965        0.8266408251       -6.3946470038
 C        -9.9770735467        3.1750919501       -7.1979221030
 C        -8.8874408044        2.5955055378       -5.0468935777
 C       -15.9817993124        4.4346938153       -5.2861536570
 C       -15.2546895381        6.7185249345       -4.4694389639
 C       -13.8248562906        4.1305810028        1.5863971364
 C       -12.3512499504        5.0212148484       -0.3893478475
 C        -9.3015649527       -1.0698399114       -0.4717071521
 C        -7.4051669855       -0.5653893728        0.9675965030
 C        -5.7988252416        6.1465086792        0.5923427687
 C        -4.3729518317        5.2040830202        2.3364480921
 C        -5.7611587088        5.1734765418        9.0874870856
 C        -5.5525760765        7.3869540289        7.7233127866
 H        -2.0950415158        4.6130775048        7.4932165831
 H        -3.7042499142        3.8796869011        7.1717924765
 H        -3.0544225878        4.1511977578        8.9143468887
 H        -5.7679497009        6.4473060635        4.9074082977
 H        -7.3348663473        6.2809203987        5.5534006856
 H        -7.6400609659        4.2289292022        4.4921426726
 H        -6.0488147424        4.0149891763        4.1935279075
 H        -7.8007036781        4.0886199603       -0.0075127286
 H        -7.9879476685        2.9182601373        1.1773309361
 H        -6.2926156072        1.3575336870       -0.0297592017
 H        -6.7512879693        2.2802877836       -1.4846954425
 H       -11.3755983021       -0.4333967272        2.2150264173
 H       -11.6121443080       -0.0891442502        0.4464546410
 H       -12.0612882438        1.8869282438        2.7203237233
 H       -13.0851127862        1.3172098723        1.4295877840
 H       -15.4949323080        4.3079196455       -0.2940992816
 H       -16.1113239938        2.6132506140       -0.3955828949
 H       -16.8047049379        3.4675933789       -2.4880896711
 H       -15.3171869405        2.6146287652       -2.7984467100
 H       -12.5747314208        6.2171980359       -4.2665155623
 H       -12.9827547619        6.7227167874       -5.9544632898
 H       -10.6796085755        6.2243279307       -5.9833637761
 H       -11.5064676499        5.2305390188       -6.9707667243
 H       -11.1508900040        0.9650382810       -7.3625391371
 H       -12.7032031007        1.0271328437       -6.6075903970
 H       -11.2108974087       -0.1348392327       -6.0713656754
 H        -9.1634157746        3.9464874872       -7.2462089171
 H       -10.8245685082        3.5060183227       -7.7915834851
 H        -9.6134484779        2.3479028093       -7.7589431587
 H        -9.0181308108        2.5021672433       -3.9642925062
 H        -8.0876069054        3.4132269993       -5.1435372419
 H        -8.4914912458        1.6299648268       -5.4757716146
 H       -16.3626156572        3.4541785091       -4.9078988490
 H       -15.6609830181        4.2527944449       -6.3135761752
 H       -16.8728958984        5.1740970029       -5.3420979354
 H       -15.1100746525        7.0468581252       -5.4577973986
 H       -14.6764723948        7.2299608142       -3.8169769585
 H       -16.3032939533        6.9491623064       -4.1516704626
 H       -13.2801167371        4.3111369438        2.5273760772
 H       -14.5295523813        3.2624230984        1.7218869706
 H       -14.2860780117        5.1080933876        1.4563508863
 H       -11.6300649592        5.5589078992        0.2734205032
 H       -13.1951203639        5.7417396148       -0.4096168150
 H       -11.9419222594        4.8403175850       -1.3633940642
 H        -9.1670899439       -1.9840885370        0.0649994775
 H        -8.7594747879       -1.2903879454       -1.4098591235
 H       -10.2605672102       -0.7470206172       -0.8005206880
 H        -6.9264911595        0.0872728194        1.6672314424
 H        -6.6575868201       -0.9775308743        0.2572840899
 H        -7.6629349216       -1.3880904579        1.5429878152
 H        -5.7670049345        7.1600993751        1.0112569785
 H        -6.6172439192        6.0439417197       -0.1335481836
 H        -4.9221730387        5.8453067517        0.0536279360
 H        -4.2214916956        4.9914934723        3.4139486745
 H        -3.8957387618        6.1044734628        1.9595829311
 H        -3.6958899294        4.4757062080        1.8459699909
 H        -5.7020753768        4.0945167840        9.0416351165
 H        -6.8471392007        5.4227248479        9.2735119350
 H        -5.2498777101        5.5190334523        9.9862503148
 H        -6.4078380773        7.7498819637        7.1601502330
 H        -4.7185183091        7.9850293581        7.2967488078
 H        -5.6030159702        7.7023427460        8.7801336777
 Na      -11.1294856203        2.7675583819       -2.3279479518
