117

 C       -13.0036371800        0.6917182761       -2.7434761734
 C       -12.2456778730        0.5357044163       -1.3736209190
 O       -11.9711119607        1.5260097600       -0.7394083235
 C       -12.0208553664       -1.0093091592       -0.9699501193
 C       -10.9556730922       -1.0372971553        0.2465754095
 O       -11.4865964471       -0.5913660707        1.2409429884
 C        -9.3623880601       -0.8565806534        0.0840800337
 C        -8.5357131884       -0.6517312953        1.4159452231
 C        -8.4969615469       -2.0247387255        2.1726838760
 O        -9.3796007708       -2.8413451913        2.0589994633
 C        -7.6079719348       -1.9605499571        3.4450690088
 C        -8.2940172744       -0.9183905208        4.2789788284
 O        -7.8616356961        0.2334872125        4.0507388980
 C        -9.2208171033       -1.1848032014        5.4471649135
 C        -9.8514557508        0.0363819344        5.9915628828
 C       -10.6787401287        0.9726273453        5.0036738535
 O       -11.4101465924        0.4338021906        4.2452756303
 C       -10.6319898869        2.5319337812        5.1227775164
 C       -10.2477602876        2.9671061836        3.6532720632
 O        -9.7486308672        2.1333826726        2.8410403276
 C       -10.2633958085        4.4657319064        3.4369803479
 C       -10.4463560036        4.7945209943        1.9465970242
 C       -12.0250811796        4.6346599406        1.6177744009
 O       -12.4956277438        3.4816754504        1.6203300897
 C       -12.8364108717        5.9333427823        1.4364900531
 C       -12.4511298102        6.8514183556        0.2835259665
 O       -11.6201069716        7.7312732769        0.4980320349
 C       -12.8494578255        6.3298040683       -1.0476981230
 C       -11.9200177349        6.5332994078       -2.2412101323
 C       -10.8192447004        5.5762027965       -2.1349550929
 O       -11.0078821578        4.4986080968       -1.6357249388
 C        -9.4115526042        5.8467936342       -2.5860747037
 C        -9.0352027634        7.4197273145       -2.4863625295
 O        -9.4830055355        8.1713406054       -1.7071179831
 C        -8.0277261016        8.0718341506       -3.4473838547
 C        -8.7436696938        8.7012172669       -4.7244969778
 C        -7.7488497643        9.6683585237       -5.3290039356
 O        -7.1813002010       10.4581844425       -4.5954561957
 C        -7.2454838691        9.7259667041       -6.7950760494
 C        -6.2005580603        8.6568177394       -7.1336284120
 O        -6.3324735837        8.0026054249       -8.1826918502
 C        -4.9849442648        8.4271204276       -6.1231168940
 C        -8.4808033164        9.6966131952       -7.7714981247
 C        -6.6333858846       11.2073915151       -6.9923809788
 C        -8.3357606219        5.2041335059       -1.4148117003
 C        -9.0019744614        5.1927220577       -4.0251015258
 C       -14.3476096179        5.5058610937        1.2781637966
 C       -12.7182919193        6.7804281356        2.7986847706
 C       -12.1211577315        2.9965197475        5.3029944414
 C        -9.6508703655        3.1358268386        6.2494165192
 C        -7.6149665217       -3.3623837947        4.0579062833
 C        -6.2132138692       -1.4548664089        3.1269221159
 C       -13.3500124292       -1.5701681937       -0.3372715071
 C       -11.2839308701       -1.8565666804       -2.1996601547
 H       -12.2979417201        1.2293043445       -3.3864684979
 H       -13.8597626435        1.2412253661       -2.6671493936
 H       -13.0572171739       -0.2563241365       -3.3125073577
 H        -9.0826238869        0.0084563573       -0.7028758973
 H        -8.9458102543       -1.7408132889       -0.5776326762
 H        -9.2418996889       -0.0662475366        1.9839961975
 H        -7.6325693500       -0.2551694838        1.2697241489
 H        -8.4807322128       -1.3698956628        6.2563758283
 H        -9.8751868882       -2.0073845854        5.3149131123
 H        -9.2267506014        0.6522829876        6.5927294639
 H       -10.5194853991       -0.4475885820        6.6638083370
 H        -9.3251889884        4.9302907845        3.7736999454
 H       -10.9926121572        4.9242693237        3.9496581783
 H        -9.9052909817        4.1967061508        1.2503226327
 H       -10.2878096671        5.8205767880        1.7156245023
 H       -13.8216482104        6.8308749439       -1.3174105083
 H       -13.0583473314        5.3109194788       -0.9188681735
 H       -11.6111515100        7.5853110522       -2.2839271834
 H       -12.4548751641        6.3112314699       -3.1102502825
 H        -7.2209644783        7.3909056413       -3.8772135913
 H        -7.4852285356        8.9481336127       -3.0174489850
 H        -9.4995841499        9.3841850277       -4.2564201602
 H        -8.9497074984        7.9650943969       -5.4507535117
 H        -5.3359768382        8.0976256641       -5.1764938616
 H        -4.5623722145        9.3616116370       -6.0447023365
 H        -4.2851705408        7.7813220544       -6.5985530038
 H        -8.3382571309        9.1699813981       -8.6825927073
 H        -8.8686064226       10.7448312332       -7.9769653993
 H        -9.3672824149        9.1958582413       -7.3903510264
 H        -5.5767209415       11.2659062918       -6.6682871169
 H        -7.3659023374       11.8059005458       -6.4233321320
 H        -6.6729221784       11.5092639378       -8.0149250774
 H        -7.4810069773        4.9826285860       -2.0670261199
 H        -8.6095396735        4.3254488250       -0.8347437267
 H        -8.0204687038        6.0367903870       -0.7531454851
 H        -9.8592130590        5.1284735033       -4.6191246898
 H        -8.8461383687        4.0429356122       -4.0160142875
 H        -8.2024623839        5.6161576763       -4.5902790397
 H       -14.3535880258        5.0099010962        0.3199129907
 H       -14.9209268195        6.4125718520        1.1817941502
 H       -14.7957351320        4.8447015613        2.0108511716
 H       -13.7887665235        6.8926824096        3.0942145753
 H       -12.2243635916        7.7310056499        2.6397317994
 H       -12.1177748641        6.3269098733        3.5494101140
 H       -12.7289472056        2.0720294672        5.2926537572
 H       -12.4523315705        3.7368011516        4.4466379190
 H       -12.2583967477        3.5542705538        6.1326348525
 H       -10.2287927149        3.5029646606        7.1436495302
 H        -9.1609619593        3.9823773932        5.7257875674
 H        -8.9011716316        2.3860887831        6.5100337505
 H        -6.6496863455       -3.7631948674        4.3796985325
 H        -7.9139547517       -3.9666669029        3.1675174389
 H        -8.4052848573       -3.3513891670        4.8656952980
 H        -6.2265842967       -0.5180448330        2.4590319902
 H        -5.7522566247       -2.3006672779        2.5647672626
 H        -5.7053651472       -1.4012609049        4.1142693653
 H       -13.3426511151       -2.6700639556       -0.1012028058
 H       -14.3552329597       -1.2644095268       -0.7898150910
 H       -13.4866329246       -1.1002735388        0.6656257977
 H       -10.9793868541       -2.8311598658       -1.8424464620
 H       -10.3722707167       -1.2558754176       -2.4790513962
 H       -11.9918753175       -1.9860320210       -3.0484494845
 Na      -11.4396137249        1.4294117736        1.6594952841
