117

 C       -13.0987792162        0.8076830799       -2.7860172633
 C       -12.4454190942        0.5222660757       -1.4531597224
 O       -12.1825104196        1.3858587540       -0.6378417472
 C       -12.1342949545       -1.0312256040       -1.1313345466
 C       -11.1779921766       -0.9160007933        0.2804479320
 O       -11.4829443891       -0.6374673245        1.4335355081
 C        -9.6316316574       -1.0080524476        0.0082415614
 C        -8.7740849355       -0.7387102779        1.3035980055
 C        -8.7663823574       -1.9106607035        2.3011566275
 O        -9.4729229197       -2.8719535576        2.2888077976
 C        -7.5955200395       -1.8696914759        3.6625401545
 C        -8.1172368443       -0.7916630060        4.5398107558
 O        -7.8199922979        0.3629367763        4.4713541496
 C        -9.3243891970       -1.1897496732        5.4771183840
 C        -9.9465718452        0.1763925585        6.0897952599
 C       -10.5430982104        1.0465647440        5.0599691920
 O       -11.2520808050        0.4675865726        4.1887198088
 C       -10.5047378524        2.6662007472        5.1441526420
 C       -10.0491211787        3.2669613262        3.6417352204
 O        -9.7036329578        2.4833907040        2.8306977755
 C        -9.9722192799        4.7939933166        3.3416934631
 C       -10.5764571000        5.0400097317        1.9679679223
 C       -12.0627163336        4.6626674992        1.6584525376
 O       -12.4470187194        3.5758242240        1.3376144604
 C       -13.0253749470        5.9983056185        1.4635699534
 C       -12.5139865314        6.7808579377        0.2015018219
 O       -11.5911507941        7.4969916823        0.3192482584
 C       -13.0413574158        6.6119434214       -1.2531801496
 C       -11.8105470400        6.9134433914       -2.1780734239
 C       -10.8000905461        5.6931384274       -2.0493155200
 O       -11.2355026851        4.5385336052       -1.9745444581
 C        -9.2922581520        5.8154525071       -2.3062430504
 C        -8.8835016377        7.2728062250       -2.5628212557
 O        -9.3968684679        8.2330192576       -1.9695693021
 C        -7.7524046288        7.6756255709       -3.4575586067
 C        -8.2552059593        8.3942046600       -4.8001673059
 C        -7.3980321681        9.6114207877       -5.2838234058
 O        -7.1108281397       10.4433010117       -4.4667828000
 C        -7.1510873208        9.6204126445       -6.8519415525
 C        -6.1366292928        8.4449271425       -7.2016410956
 O        -6.3156930157        7.8777953891       -8.2007314145
 C        -4.8654681358        8.2740570033       -6.3884157186
 C        -8.5017827890        9.3795514396       -7.6728574675
 C        -6.4425813653       10.9126313311       -7.2952113867
 C        -8.3691086927        5.0662301773       -1.2265155691
 C        -9.1895246996        5.0143237347       -3.7044169634
 C       -14.4318618600        5.5184109747        1.3356402743
 C       -12.8734597458        6.8252083800        2.7802457849
 C       -11.9365582352        3.1581557030        5.4292072706
 C        -9.5546637425        3.2773599455        6.2625420370
 C        -7.2951535769       -3.3650944901        3.9867070169
 C        -6.1499607672       -1.4760133994        2.9499780211
 C       -13.3943059196       -1.7491275902       -0.7070863276
 C       -11.5102603223       -1.9630133920       -2.2778653481
 H       -12.5299601178        1.3631806268       -3.5194518313
 H       -14.0851156874        1.3764114001       -2.5550142494
 H       -13.2928790977       -0.1615132148       -3.2533472042
 H        -9.3224397968       -0.4918270251       -0.8126420031
 H        -9.2051588782       -1.9099490747       -0.3356402065
 H        -9.2896947454        0.0607498188        1.9266525535
 H        -7.7001817998       -0.5514264458        0.9289344400
 H        -8.9805840741       -1.8753174127        6.2461854014
 H        -9.9233095353       -1.6662231122        4.6492443972
 H        -9.1529414353        0.8039957545        6.6204779641
 H       -10.8008970206        0.0021919492        6.7631622050
 H        -8.9225735170        5.1255177284        3.1027288239
 H       -10.4345018860        5.3366276363        4.2418088083
 H        -9.9617302778        4.3512617419        1.3850513354
 H       -10.5091294082        6.0135175708        1.4153065816
 H       -13.8789119371        7.2488683063       -1.3475536694
 H       -13.3325853514        5.5845747257       -1.4958517733
 H       -11.4626609992        7.9222531687       -1.9965220456
 H       -12.0997103433        6.7801351338       -3.2733571127
 H        -7.1162793233        6.9246436273       -3.8136614629
 H        -7.0556213142        8.3563889749       -2.9861512089
 H        -9.2272429121        8.7813836731       -4.6981385036
 H        -7.9017645963        7.7133842849       -5.6144771784
 H        -5.0596191122        8.7584828821       -5.3886290887
 H        -4.0086136115        8.7577177837       -7.0060524497
 H        -4.6522502903        7.1912275515       -6.3783218576
 H        -8.3444584448        8.5508313581       -8.4158227157
 H        -8.7907482253       10.2385431993       -8.1840668234
 H        -9.3652663706        8.9659349705       -7.0271314031
 H        -5.7600187636       11.1344086536       -6.4453279624
 H        -7.1419922872       11.7224674614       -7.4943964265
 H        -5.8546292133       10.7227185431       -8.1686957031
 H        -7.4424503814        4.5964184228       -1.6301617898
 H        -8.9899255777        4.2308575609       -0.7797591261
 H        -8.1356552174        5.7805801762       -0.4340742867
 H        -9.7090478609        5.4814137803       -4.6089206255
 H        -9.4167266760        4.0138575036       -3.7397032824
 H        -8.1243558041        5.0591509896       -3.8998408261
 H       -14.5042337397        4.9138175317        0.4253502125
 H       -15.1816378279        6.3298631266        1.3764515877
 H       -14.6529525457        4.8417543865        2.1663794666
 H       -13.6914924201        7.5690543895        2.9409457018
 H       -11.8758152547        7.3151330861        2.6385318785
 H       -12.7760498865        6.2089961005        3.7437789225
 H       -12.2443876654        2.7830760674        6.3473859758
 H       -12.6421186702        2.7866380352        4.6682079355
 H       -11.9829077260        4.2635384782        5.4131643549
 H        -9.6080373698        2.5791200968        7.0452211292
 H        -9.8223751840        4.2448458638        6.5557879153
 H        -8.5470132997        3.2663701038        5.8675741760
 H        -6.2129063563       -3.5057636188        3.8311195893
 H        -7.7902495945       -4.0166721038        3.3155395592
 H        -7.4934433496       -3.5269918061        5.0167201876
 H        -6.2153657011       -0.5576295303        2.4449197512
 H        -5.9619776878       -2.2989598360        2.2740740640
 H        -5.4004104765       -1.4930188314        3.7218034942
 H       -13.2968535362       -2.7692807973       -0.3300581048
 H       -14.1089430634       -1.8908469920       -1.5126980321
 H       -13.9491637158       -1.1868384998        0.0159652482
 H       -11.4811907057       -2.9948777102       -1.8231992985
 H       -10.5528137663       -1.5242740196       -2.5703471162
 H       -12.2297681284       -2.0912069889       -3.0910857937
 Na      -11.8334770182        1.5147807503        1.9842987506
