117

 C       -13.0854406872        0.6877539834       -2.6602195230
 C       -12.5572480499        0.3942229152       -1.2796037656
 O       -12.4704324764        1.2050169056       -0.3477669060
 C       -12.1678786895       -1.0584129737       -1.0875884315
 C       -11.2911516985       -1.0145448211        0.3101565419
 O       -11.8385884686       -0.8628411881        1.4240119315
 C        -9.8695138365       -1.4158128034        0.1422426147
 C        -8.9102390267       -0.8576790539        1.1705108770
 C        -8.7487167575       -1.9864699562        2.3344626803
 O        -9.6141364490       -2.8548342106        2.4580437439
 C        -7.5983367187       -1.6803628572        3.4192858403
 C        -8.1206906597       -0.7304918590        4.5265506093
 O        -7.4600684261        0.2875852412        4.7717928728
 C        -9.5194496756       -0.9840001767        5.2809903603
 C        -9.8837664751        0.2276609160        5.9996091670
 C       -10.4978848839        1.3059526238        5.0038150233
 O       -10.9519337616        0.8475536201        4.0050048769
 C       -10.3424199511        2.7857795559        5.1040933876
 C       -10.0389713887        3.3008328641        3.5624579332
 O        -9.6767090836        2.5270668447        2.6504205582
 C       -10.2050066589        4.8846624419        3.4221512862
 C       -10.5424073682        5.1609188613        1.9694886826
 C       -12.0897670170        4.8953703146        1.6846493395
 O       -12.4014194790        3.7086945216        1.5319279257
 C       -13.1577963927        6.0975703706        1.4818311610
 C       -12.5259368680        6.7546131237        0.2888654420
 O       -11.4822629228        7.4066255610        0.5358343476
 C       -13.0679456865        6.8455654473       -1.0766709564
 C       -12.0101626986        6.9949575481       -2.2987869336
 C       -10.9987643830        5.6338802464       -2.1986155100
 O       -11.4415538018        4.5552035286       -1.8350767170
 C        -9.3941707691        5.7292417743       -2.4905077907
 C        -8.6647905604        7.2393866138       -2.7087730133
 O        -9.0426594216        8.1787413700       -2.0228033658
 C        -7.3984872687        7.4975622684       -3.3643119861
 C        -7.5716194590        7.9502263945       -4.8425952475
 C        -7.1241508652        9.3361294181       -5.3732072577
 O        -6.8682869969       10.2270180134       -4.6311437068
 C        -7.0418727437        9.4345120658       -7.0722849717
 C        -6.0759657682        8.3039164433       -7.4004588872
 O        -6.2936368803        7.3547236365       -8.2354206497
 C        -4.7610151928        8.2305400019       -6.5046475980
 C        -8.5050828161        9.3189392818       -7.6409969420
 C        -6.3032330323       10.7892013339       -7.2940141250
 C        -8.7017502577        5.3145156218       -1.2250847926
 C        -8.9484337701        4.8871686006       -3.6650998799
 C       -14.4940146905        5.4427476790        1.2723187472
 C       -13.1313206615        7.0908806560        2.6453819533
 C       -11.8599586510        3.2502109517        5.3919631671
 C        -9.2344770822        3.3252801655        6.0836623257
 C        -7.5085155933       -2.9847628739        4.3722718136
 C        -6.3376492701       -1.0313262825        2.7836025335
 C       -13.5839595044       -1.7419251101       -0.7291836721
 C       -11.3644030645       -1.6445127377       -2.3124291598
 H       -12.2700330123        1.1175994191       -3.2983613960
 H       -13.8577830999        1.3823335947       -2.6157143682
 H       -13.4063766837       -0.1885546471       -3.1677795147
 H        -9.5446344597       -1.3705803114       -0.9864733233
 H        -9.6446585221       -2.5215508709        0.0031535091
 H        -9.4365885911       -0.0166613808        1.5028206032
 H        -7.9658103292       -0.6787933056        0.6946689591
 H        -9.2105012839       -1.6973967663        6.0478746639
 H       -10.1564402259       -1.3288936726        4.4987246826
 H        -9.0525865983        0.6210273043        6.5259136041
 H       -10.7172474669       -0.0419748507        6.7173619863
 H        -9.2298662076        5.3252249734        3.5496910879
 H       -10.9915706349        5.3893739586        4.0138147848
 H       -10.0113601375        4.4273896735        1.2568861511
 H       -10.3987406234        6.1235400684        1.4884352632
 H       -13.7562842357        7.8018020841       -1.0075580145
 H       -13.7317568105        5.9165879455       -1.2510499213
 H       -11.3872785054        7.9036228296       -2.0411207611
 H       -12.5646239147        7.1451433405       -3.2152141451
 H        -6.7749033305        6.5808625446       -3.4801629206
 H        -6.7676228028        8.0644147085       -2.6625354336
 H        -8.6417897892        8.2598191084       -4.8385471533
 H        -7.2443635061        7.2263466782       -5.5034335171
 H        -4.5809885900        9.1628796826       -6.0675281946
 H        -4.0160745779        7.8433357904       -7.1151388937
 H        -4.9225237208        7.4331235403       -5.7709996785
 H        -8.5969075862        8.7006928918       -8.5392627566
 H        -8.8799931145       10.3889240592       -7.9401301484
 H        -9.1309889125        8.8642368649       -6.9325780279
 H        -5.6670004054       11.0047765091       -6.4814123676
 H        -7.0051093452       11.6083809257       -7.4141891750
 H        -5.6819629630       10.6823973337       -8.2873938491
 H        -7.7913201737        5.9017926413       -1.1854191395
 H        -8.4633462439        4.3049550367       -1.1316655748
 H        -9.2359859409        5.7449026969       -0.3733387047
 H        -8.4595041479        5.4788653508       -4.4537342875
 H        -9.8591934499        4.3819920745       -4.1492237662
 H        -8.2881565032        3.9934942448       -3.5037385442
 H       -14.4188906367        4.5209431441        0.6984278253
 H       -15.2961858324        6.1091419231        0.9879719138
 H       -14.7935520307        5.1500134904        2.2973391055
 H       -13.3664615574        8.0887571641        2.4618778522
 H       -12.2553869939        7.0474699739        3.2877685446
 H       -14.0011511029        6.8029572053        3.1746262082
 H       -11.9418020020        4.1022521539        6.2118009672
 H       -12.4054137608        2.4268289555        5.7355495972
 H       -12.3647174112        3.5988136608        4.4373246083
 H        -8.7862887204        2.4990571343        6.6285070141
 H        -9.7161059779        4.0948293305        6.7646884865
 H        -8.4677074368        3.8587429524        5.5380059591
 H        -6.6274573750       -3.5631887984        4.2992900217
 H        -8.4095049887       -3.5348909815        3.9567295214
 H        -7.6889570820       -2.7711122499        5.4148449089
 H        -6.4111594462        0.0695863369        2.9909036652
 H        -6.3853242091       -1.3549750600        1.7445539551
 H        -5.4538599800       -1.3892384279        3.3128279187
 H       -13.2510410413       -2.6546955087       -0.2741259262
 H       -14.0988218577       -2.2103446760       -1.5316765147
 H       -14.3394162288       -1.2026845447       -0.0795881882
 H       -11.1262110651       -2.6280096452       -2.0647399532
 H       -10.6299100005       -0.9062736396       -2.5022870030
 H       -11.9309581617       -1.7883877425       -3.1982922887
 Na      -12.0914668003        1.4991351673        2.1412889841
