117

 C       -13.0785027272        0.8006225104       -2.5980133641
 C       -12.6457806416        0.4381779961       -1.1907842211
 O       -12.6960512197        1.1390125007       -0.1827664711
 C       -12.1938839844       -1.1165967328       -0.9781708142
 C       -11.4343584707       -1.1647553773        0.3381020991
 O       -11.9084172621       -0.8313189188        1.3939578146
 C       -10.0249836638       -1.6580155322        0.2054990225
 C        -9.0843607694       -1.0072544359        1.2305013673
 C        -8.8515680656       -1.8967788337        2.4133929633
 O        -9.5579244244       -2.8772059665        2.5781874893
 C        -7.7791907064       -1.5542843814        3.4428640935
 C        -8.1098511195       -0.5076797530        4.5023896667
 O        -7.3722128872        0.3126320827        4.9424587551
 C        -9.4564720143       -0.8401043446        5.2074756435
 C        -9.9928206578        0.3408206436        6.0328333600
 C       -10.3473174104        1.3625965826        4.8791781417
 O       -10.9906597964        0.8080883725        3.9516417821
 C       -10.3145738157        2.8673807782        5.0282151399
 C       -10.0250078090        3.3883487987        3.5944181194
 O        -9.7227043884        2.7081398431        2.6802728418
 C       -10.2753311666        4.8826350609        3.4158576836
 C       -10.5581264151        5.2074850034        2.0035290013
 C       -12.0820586589        4.8859692923        1.8175132718
 O       -12.4774259552        3.7218380748        1.7829876388
 C       -13.1740075602        5.9967404373        1.6238661712
 C       -12.3655295839        6.9683618315        0.2768941128
 O       -11.3803028410        7.5316025522        0.5403903290
 C       -13.0697844835        6.8650292314       -1.1895594085
 C       -11.8434301643        6.9649819494       -2.3234116606
 C       -10.9206287959        5.8400360492       -2.2667374504
 O       -11.2997494730        4.7267947592       -1.9058884220
 C        -9.4057737273        5.8792649613       -2.6662351340
 C        -8.6564973752        7.2496787744       -2.6869610706
 O        -9.1691320843        8.1451399519       -1.9553057316
 C        -7.3434755296        7.4876818148       -3.5803211857
 C        -7.4785082886        7.6086744891       -5.0614556346
 C        -7.0009283385        9.2034781339       -5.4393237662
 O        -6.7396421891       10.0279486172       -4.6279391561
 C        -6.9289787405        9.3534529928       -6.9367540253
 C        -5.9873916995        8.0711503352       -7.4703950527
 O        -6.2909553659        7.1784218402       -8.1829759558
 C        -4.6381381449        8.1141675728       -6.7263116546
 C        -8.3401903825        9.2681186781       -7.5414814219
 C        -6.3287914007       10.7310108967       -7.3312467874
 C        -8.8967293833        5.3290749916       -0.9943444618
 C        -9.0406828046        4.7852306720       -3.7159750741
 C       -14.4922513996        5.4687104379        1.1718872499
 C       -13.3296699118        7.1355278403        2.6986538632
 C       -11.7376461792        3.2976485358        5.4766038708
 C        -9.1810235009        3.4234483835        5.9057011323
 C        -7.3892461950       -2.8975863158        4.2483596933
 C        -6.3926535680       -1.1181216952        2.8912686704
 C       -13.4014305488       -1.8191411606       -0.7144846738
 C       -11.4565061364       -1.5349634948       -2.3197470471
 H       -12.3559379534        0.9092828368       -3.3903135756
 H       -13.7471625566        1.6964209587       -2.5062293179
 H       -13.7214359962        0.0321013060       -2.8657591766
 H        -9.6336933952       -1.5744550151       -0.8818484668
 H        -9.9010088695       -2.7950211524        0.0206040101
 H        -9.4899468832       -0.1056939463        1.3674682187
 H        -8.0521019893       -0.9704768362        0.7836909089
 H        -9.2109548186       -1.7612626002        5.6323848739
 H       -10.0973363102       -0.9406340759        4.3213802590
 H        -9.3495130962        0.8631139405        6.6744567162
 H       -10.9128561683        0.1115161340        6.4919081656
 H        -9.3668859039        5.2397518854        3.5935746123
 H       -11.0089911541        5.4247203180        3.9658709186
 H       -10.0767979057        4.6717652192        1.2543138863
 H       -10.4595609672        6.2039787198        1.7483959212
 H       -13.7176099164        7.6539024662       -1.3053142006
 H       -13.5843167166        5.9282254164       -1.2592842623
 H       -11.3707570911        7.8888115524       -2.2657959684
 H       -12.2805517644        6.8738130973       -3.3509794188
 H        -6.5294032032        6.7505422264       -3.3897059772
 H        -6.8333116866        8.3917149794       -3.1038856983
 H        -8.5164074766        7.5024228820       -5.3780830847
 H        -6.7156447899        6.9830990283       -5.5765878791
 H        -4.3447794971        9.1002751931       -6.7437173816
 H        -3.9846425579        7.3752626703       -7.1432940944
 H        -4.8554795238        7.8540947118       -5.7460054504
 H        -8.1510292469        8.9573186431       -8.5787063019
 H        -8.7867695132       10.2113206590       -7.6207724455
 H        -8.9754863592        8.5206979843       -7.0749551035
 H        -5.4965606075       11.0014170841       -6.6987350756
 H        -7.0937810512       11.4664721894       -7.0426487053
 H        -6.0889645879       10.8414829204       -8.4294060748
 H        -7.9626022102        5.7049803834       -0.6366961897
 H        -8.8730191116        4.2594591627       -1.1381766871
 H        -9.5806103076        5.7097745118       -0.2403741516
 H        -8.1760638941        5.0919590417       -4.4061958859
 H        -9.8715239630        4.5323612928       -4.2651201916
 H        -8.7454041316        3.7885853979       -3.3436825621
 H       -14.5026039172        4.6498760775        0.4741732249
 H       -15.0740271634        6.3328506625        0.8796636402
 H       -15.0418841718        5.1820336775        2.0698075704
 H       -13.3863588399        8.1257355972        2.3575573465
 H       -12.4752684616        7.1575065779        3.3957404781
 H       -14.2957494043        7.0715189526        3.1606870678
 H       -11.8276974069        4.3396821664        5.5230853280
 H       -11.9673789032        2.8970153567        6.4112769538
 H       -12.4614763086        2.9199553097        4.6585384747
 H        -8.5913157784        2.6663738716        6.4323308521
 H        -9.6297410955        4.2038686574        6.5846171872
 H        -8.5063783118        4.0230527330        5.2259986720
 H        -6.9028715998       -3.3480773639        3.3458251736
 H        -8.2989382926       -3.5502967101        4.4399630962
 H        -6.6821567859       -2.8275880037        5.0892457424
 H        -6.4966162871       -0.0268570277        2.9169430159
 H        -6.2932493589       -1.5905275441        1.8577983384
 H        -5.5863509647       -1.3363724444        3.6447067861
 H       -13.4377100803       -2.9117309320       -0.4444882979
 H       -13.9927615113       -1.8882117940       -1.6396662016
 H       -14.0415616068       -1.1955246816        0.0027151090
 H       -11.0479640440       -2.5372750290       -2.0847841608
 H       -10.8832527611       -0.7082215076       -2.6486766277
 H       -12.1339110216       -1.7962658409       -3.1071658772
 Na      -12.1428386426        1.4313667164        1.9691599520
