117

 C       -13.1222861100        0.9918572518       -2.4568001499
 C       -12.8276135979        0.4772007250       -1.1086680948
 O       -12.9812661607        1.2759194932       -0.2269975119
 C       -12.3202050327       -1.0778689811       -0.9391047551
 C       -11.4137775334       -1.2776924029        0.2810459850
 O       -11.8958273620       -0.8811066230        1.3121674732
 C        -9.9171142576       -1.8171062345        0.2846504388
 C        -9.0028466383       -1.0738181539        1.3133291191
 C        -8.8925206607       -1.8907878658        2.5705744380
 O        -9.5219918684       -2.8967913375        2.7391182852
 C        -7.6657141414       -1.5735036065        3.4773266814
 C        -8.0371368321       -0.5590474886        4.7119350550
 O        -7.4018414095        0.4141372072        5.0401679156
 C        -9.4899276940       -0.8946969829        5.3916118536
 C       -10.0817612150        0.3858163481        5.9949274709
 C       -10.5336075175        1.3641527776        4.8659017146
 O       -11.0837776374        0.8692383533        3.8691881538
 C       -10.3438500908        2.9164837123        4.9653215141
 C       -10.0766266649        3.5343952956        3.5566570669
 O        -9.7438011032        2.8126868787        2.6383717503
 C       -10.1453142983        5.0729034612        3.4642438242
 C       -10.7357089359        5.3359527905        2.0722862290
 C       -12.1699704251        4.9353241822        1.8307568053
 O       -12.6374042316        3.8367660588        2.0290294674
 C       -13.1212857987        6.1758948161        1.3568756238
 C       -12.3284597479        6.9246966687        0.2043200647
 O       -11.4279198484        7.6877281779        0.4660588864
 C       -12.8494962322        6.8192545629       -1.1752097859
 C       -11.8285523370        7.1914232445       -2.2359858100
 C       -10.9198035743        5.8281184907       -2.3366979983
 O       -11.3158478412        4.7520746516       -2.0154704777
 C        -9.2755015146        5.8403648308       -2.5320413100
 C        -8.7932370652        7.2358011462       -2.7043383405
 O        -9.1777827033        8.1723452021       -2.0367953147
 C        -7.4304114505        7.4350745077       -3.4968961222
 C        -7.4519028651        7.5447648397       -4.9950585470
 C        -6.9658466872        8.8729937448       -5.5032472003
 O        -6.6540116506        9.6950787603       -4.6689428351
 C        -6.8125634853        9.1978357642       -7.0215361161
 C        -5.8580502856        8.0628740185       -7.4629510098
 O        -6.3926395539        7.2277622102       -8.0943193694
 C        -4.3792351316        7.9860154557       -6.9580279109
 C        -8.2410082608        9.1076132833       -7.6524113526
 C        -6.2902888434       10.6152958859       -7.3687495631
 C        -8.8137704306        5.3899055699       -1.0834630617
 C        -9.0508720421        4.8219433010       -3.5939904813
 C       -14.4551354178        5.5449884249        0.9901509956
 C       -13.3243448403        7.0442286252        2.7019899322
 C       -11.6322379662        3.3105176189        5.6342753464
 C        -9.1173333331        3.4995151791        5.8470367603
 C        -7.3026487649       -2.9310121222        4.1504566554
 C        -6.2892759651       -1.0998137843        2.7118762816
 C       -13.6152416922       -2.0613078299       -0.7981835020
 C       -11.5426979971       -1.5218884908       -2.2463800322
 H       -12.3253884282        0.8071211836       -3.1255518775
 H       -13.2870315345        2.0692025538       -2.3001320019
 H       -14.0807388713        0.5884970423       -2.9494456378
 H        -9.4964746104       -2.1007105345       -0.5877783303
 H       -10.0381740893       -2.8654661696        0.5359593220
 H        -9.6521729282       -0.0881757205        1.4992643494
 H        -7.9937437760       -0.8436317748        0.9566863815
 H        -9.1433774200       -1.6093231639        6.1280306548
 H       -10.1106616495       -1.3582574960        4.6302940576
 H        -9.3354198071        1.0909056093        6.4431913167
 H       -10.8596181213        0.1753185151        6.6551374289
 H        -9.0918947627        5.5476192294        3.5122454006
 H       -10.7820234348        5.5516304545        4.1701251580
 H       -10.3829797849        4.7312667135        1.3200004370
 H       -10.5943028642        6.2737597988        1.5988921938
 H       -13.5930538440        7.5457026017       -1.1561376018
 H       -13.2553069763        5.9072854914       -1.3856972656
 H       -11.3514296167        8.1372287595       -2.0871686567
 H       -12.4831338699        7.2920910725       -3.1113287554
 H        -6.6207438801        6.7412941330       -3.2069065669
 H        -7.0678588881        8.3530854586       -3.0095829639
 H        -8.4393515960        7.3174004920       -5.4003618678
 H        -6.5811895759        6.9069153946       -5.4709702003
 H        -3.8971671376        8.8221853957       -7.5135661313
 H        -4.0152977216        6.9908675491       -7.1985378036
 H        -4.3487813623        8.2160195592       -5.9173745800
 H        -8.1719207913        9.3103850474       -8.7173043341
 H        -8.7994854105        9.8675161853       -7.2116054676
 H        -8.6885812282        8.0882917397       -7.4514454768
 H        -5.2162141790       10.7577200584       -7.0232018895
 H        -6.8078086517       11.3254116832       -6.6778449381
 H        -6.4322272327       10.8674403171       -8.3284653789
 H        -7.7285931893        5.2720042582       -0.9215119907
 H        -9.3279745635        4.3795578722       -1.0886828274
 H        -9.0961201154        6.1362229573       -0.3703574696
 H        -8.0540382728        4.8239162465       -4.0130983209
 H        -9.8490942399        5.0963309912       -4.2874987905
 H        -9.2959160725        3.8260984154       -3.3788560318
 H       -14.3915156402        4.7619590236        0.2227719429
 H       -15.2072693049        6.2851829163        0.7155007570
 H       -14.8430843638        5.1102497855        1.8871452073
 H       -13.5819194536        8.1593831617        2.5716151843
 H       -12.4571783142        7.1011859298        3.3224913290
 H       -14.2587695781        6.7135807668        3.1663429764
 H       -11.9935238910        4.2096261460        5.2614592596
 H       -11.4245911725        3.3964329374        6.7739649423
 H       -12.3946034067        2.6750545752        5.4651440056
 H        -8.6142921634        2.6617628153        6.3876461822
 H        -9.4923782239        4.2276726365        6.5288762990
 H        -8.3610668347        4.0194315743        5.2089307904
 H        -7.3961138275       -3.6459184681        3.2728124784
 H        -7.9993902930       -3.2365611078        4.9285387037
 H        -6.2251231486       -2.9184397538        4.5172541400
 H        -6.6089667422       -0.1846448248        2.2089721886
 H        -6.0850606351       -1.9262189583        2.0225513668
 H        -5.4714255065       -0.8087717857        3.4146675946
 H       -13.5344179718       -3.1653495658       -0.9745184056
 H       -14.4362172228       -1.8474330538       -1.5834730635
 H       -14.0827251343       -1.8649116608        0.1273032947
 H       -11.2953123158       -2.5412259087       -1.9607256993
 H       -10.8485109019       -0.7880475771       -2.7073861863
 H       -12.3004499145       -1.7331894478       -3.0311742651
 Na      -12.0947913582        1.4152889425        1.8691781145
