117

 C        -3.1236685678        4.5702122686        7.8099746384
 C        -3.7048401218        5.8958027169        7.4495508661
 O        -3.1375619205        6.8765482563        7.0391130863
 C        -5.3464356018        6.0782330579        7.7043385796
 C        -5.8663285604        5.1042779088        6.5006639426
 O        -5.8931798421        3.8879492545        6.7238389232
 C        -6.3279605090        5.7363690268        5.1434001192
 C        -6.7626828564        4.6391780596        4.1074866807
 C        -6.9889622884        5.2799370853        2.6569101579
 O        -8.0682295421        5.6400735228        2.2783281891
 C        -5.7371057432        5.0864089474        1.6633883060
 C        -6.0900170410        3.5994025967        1.2034314747
 O        -5.3419532028        2.6868084202        1.4527121563
 C        -7.3172055146        3.1988061520        0.3943719306
 C        -7.0830296794        2.0420586337       -0.5598386522
 C        -8.3476018560        1.2742352147       -0.6009983541
 O        -9.1748728334        1.3531690802       -1.5196055208
 C        -8.7032315793        0.0274921077        0.4419427877
 C        -9.6359310202        0.5954481139        1.6283059899
 O        -9.1649208988        1.0864364231        2.6429437332
 C       -11.1619450195        0.3981344373        1.5502009575
 C       -12.1190614484        1.6328818365        1.5852729772
 C       -11.8285516841        2.7938458008        0.6851992546
 O       -10.6385627870        2.9405635789        0.3332098787
 C       -13.0087684068        3.7214731198        0.3377989590
 C       -13.8716727201        2.9152011467       -0.6173654857
 O       -13.3782593134        2.0963120040       -1.4190742066
 C       -15.3240117993        3.2438144179       -0.7767206955
 C       -15.7652198547        3.5564855844       -2.2616802025
 C       -15.1164338060        4.9004844541       -2.7318390805
 O       -14.6361990200        5.7288440061       -1.9792920386
 C       -15.0600857334        5.1474722247       -4.3024209785
 C       -13.5920980654        4.6979744501       -4.7327641123
 O       -13.3272278207        3.5630024722       -5.0691375235
 C       -12.6176929314        5.9654471111       -5.2432380989
 C       -11.3582369846        5.3168536895       -5.8985585569
 C       -10.7800335705        4.2600798574       -5.0174306507
 O       -10.7007248560        4.4255082444       -3.8168305288
 C       -10.2397771493        2.9705466085       -5.6884003068
 C       -11.3000587040        1.6735825123       -5.3275086011
 O       -11.5533000101        1.4078595496       -4.1934329019
 C       -11.5677240135        0.5680055878       -6.4885318977
 C        -9.8556503984        3.0956740666       -7.1993621740
 C        -8.8995627155        2.5480633564       -5.0474834947
 C       -15.9233695231        4.3770697318       -5.2655590675
 C       -15.2673952193        6.7087630382       -4.4861607514
 C       -13.8118596148        4.1729709712        1.6398600029
 C       -12.4896190561        5.0323723295       -0.3512820337
 C        -9.4647076595       -1.0285499262       -0.4903928484
 C        -7.3429178726       -0.5769742054        0.9632994154
 C        -5.9431665588        6.1238929490        0.5559390262
 C        -4.3586037365        5.1501000363        2.3977165466
 C        -5.7755804738        5.4294630449        9.0306377383
 C        -5.8372255916        7.5025091654        7.6074658709
 H        -2.0159497146        4.6982647634        7.8927379734
 H        -3.3446145656        3.8509609168        7.0470860206
 H        -3.4831792675        4.2528815405        8.8438284074
 H        -5.5729410530        6.2767534276        4.6114988511
 H        -7.1187003229        6.4428029885        5.2213553033
 H        -7.7955759098        4.2180424883        4.4376641212
 H        -6.0953061602        3.7312095917        4.1744351475
 H        -7.7002072142        4.0728222571       -0.1278239844
 H        -8.0948793030        2.9395296236        1.1489487346
 H        -6.2597423825        1.4635726412       -0.2262377634
 H        -6.8761269744        2.3629112588       -1.5995390038
 H       -11.4083410839       -0.2117315642        2.3957037712
 H       -11.3591605713       -0.2030828048        0.6699375205
 H       -12.1514258731        2.0274758432        2.5829523840
 H       -13.1620757304        1.2879301221        1.3807016960
 H       -15.4617815808        4.0831791793       -0.1514436843
 H       -15.8495156545        2.4162721296       -0.3706256415
 H       -16.8299998133        3.8298272684       -2.3185549255
 H       -15.6996362560        2.7008002654       -2.9072754700
 H       -12.5397798003        6.7353861042       -4.4348627861
 H       -13.2131003048        6.3913803258       -6.1016937828
 H       -10.6894367254        6.1257347573       -6.1537471634
 H       -11.7128250358        5.0958887059       -6.9592940169
 H       -11.0193279449        0.7582502357       -7.3829202919
 H       -12.6060068127        0.7898964966       -6.8557077124
 H       -11.2076849019       -0.3487535997       -6.1913743776
 H        -8.8822961595        3.5333514343       -7.3872995502
 H       -10.5567259021        3.7321804408       -7.6941589225
 H        -9.8256230180        2.1540160871       -7.7798156851
 H        -9.1674062403        2.4236799004       -3.9755142464
 H        -8.1241859251        3.2182531495       -5.0546773232
 H        -8.5003349701        1.5325432415       -5.4894210762
 H       -16.0224024977        3.3211570944       -4.9685583083
 H       -15.4835206856        4.3590000787       -6.2896057920
 H       -16.8688319845        4.8022253741       -5.3372376441
 H       -15.0283747859        6.9254536661       -5.5263462293
 H       -14.5946081708        7.2349807106       -3.8134730812
 H       -16.2501397750        7.0965196596       -4.2916683678
 H       -13.1116969176        4.4819163500        2.4530162887
 H       -14.4671315302        3.3570568011        2.0441076329
 H       -14.2769843733        5.1584297573        1.4611186967
 H       -11.6008966987        5.2327124042        0.1872549995
 H       -13.0456463285        5.8796643747       -0.1521508383
 H       -12.2781213608        4.9202422336       -1.4093587172
 H        -9.3379365885       -2.0394302903        0.0166448923
 H        -8.9549173751       -1.1914584266       -1.3578507308
 H       -10.4045937653       -0.7133706002       -0.8983634501
 H        -6.9878687434        0.0578712287        1.7590285943
 H        -6.5388428831       -0.6770529425        0.2357438153
 H        -7.4544957297       -1.5098311189        1.4112776057
 H        -5.9130792750        7.1550008021        1.0220152816
 H        -6.8854148861        5.9963083709        0.1155663202
 H        -5.1807342895        5.9033803819       -0.2011277355
 H        -4.3084875822        5.0750071192        3.5071291811
 H        -3.6859680533        5.8590252935        1.9377425973
 H        -3.8116537293        4.1953339579        2.0861384367
 H        -5.6344609482        4.3341734564        8.9884649108
 H        -6.8375394483        5.5113584348        9.0143853250
 H        -5.4875051522        5.8182849267       10.0324436972
 H        -6.9429298289        7.5880566307        7.8522374077
 H        -5.7163083242        8.1133530434        6.6696127841
 H        -5.2992353007        8.0317047846        8.4010687189
 Na      -10.9853501395        2.8215001022       -2.3431129107
