117

 C       -13.2123873716        1.1040251482       -2.5544993318
 C       -12.9573479861        0.5301845463       -1.1304371628
 O       -13.1534818253        1.1477961463       -0.0978600997
 C       -12.4568209563       -1.0426659384       -0.9944579863
 C       -11.4330488149       -1.2375752662        0.2929801131
 O       -11.8348559451       -0.9027686879        1.4353314898
 C       -10.0948276522       -1.8338703871        0.3549818430
 C        -9.0927984001       -1.0894003636        1.2563703548
 C        -8.7028359058       -1.9569418821        2.6118116085
 O        -9.4982717049       -2.7938981629        2.9815712063
 C        -7.4982374224       -1.6630158958        3.5767858217
 C        -8.0696254349       -0.6730253596        4.7858808548
 O        -7.4666834975        0.3835657487        5.0183880181
 C        -9.3820649349       -0.9183710776        5.5474435813
 C        -9.9896310144        0.3994494547        5.9418284876
 C       -10.5090343240        1.3427696946        4.8143073749
 O       -11.1703622079        0.9471727274        3.9142517798
 C       -10.3826963552        2.9322883001        5.0345459095
 C       -10.1557887364        3.5834527252        3.5820991278
 O        -9.8190128991        2.9228839890        2.5578717593
 C       -10.0684297970        5.0751615392        3.3927896733
 C       -10.7175069033        5.5021924443        2.0469234999
 C       -12.2073288210        5.0338838853        1.8800945575
 O       -12.7696437006        4.0105484425        2.2358593924
 C       -13.1211187395        6.1690823952        1.3031892625
 C       -12.4637759715        7.0529392088        0.2192981323
 O       -11.4741336364        7.7803382949        0.5200996289
 C       -12.9401355455        6.8434015237       -1.2938927642
 C       -11.7353594394        7.0607968741       -2.1946719962
 C       -10.9090090059        5.8262520271       -2.2063856160
 O       -11.5611025814        4.8049050261       -2.1813155581
 C        -9.3557081999        5.8369869197       -2.4265363881
 C        -8.7288245923        7.3429933115       -2.6549663060
 O        -9.2120338639        8.3095541781       -2.1724397890
 C        -7.3710753911        7.3637772240       -3.3937485879
 C        -7.5096073404        7.3412603189       -4.9562656768
 C        -6.8975426923        8.7968022993       -5.4324099645
 O        -6.4855008311        9.6225229995       -4.6507541638
 C        -6.8217420388        9.1356938009       -6.9972446620
 C        -5.8342448246        8.0214921238       -7.6068725405
 O        -6.3178947077        6.9722238444       -8.1409607216
 C        -4.3122191130        7.9579764665       -7.3053337427
 C        -8.1347275085        8.9127646388       -7.7995295547
 C        -6.1508914842       10.5265771126       -7.2172115105
 C        -8.6660877762        5.3876256414       -1.1426154229
 C        -8.9860907755        4.8427876392       -3.5929832339
 C       -14.4857812376        5.6386158395        0.7600771860
 C       -13.2309374759        6.9861086370        2.5537798927
 C       -11.6899272054        3.4459960496        5.8519241536
 C        -9.0622123486        3.3681593070        5.7981817813
 C        -7.1124402498       -3.0426152342        4.2469709468
 C        -6.4163977676       -0.9986169920        2.6948078734
 C       -13.6653892726       -2.0622184503       -0.8493264762
 C       -11.6690821844       -1.5577649095       -2.3229276549
 H       -12.3438590213        0.6241614721       -3.0832777873
 H       -13.1065280225        2.1618801292       -2.6262453043
 H       -14.1557447654        0.8207855488       -3.1244891531
 H        -9.6890348446       -2.0832130652       -0.5885446192
 H       -10.2062094688       -2.8288330588        0.5099485937
 H        -9.6874985857       -0.1252018689        1.6458290406
 H        -8.2073721596       -0.7859527288        0.6430970884
 H        -9.0012210030       -1.3758899458        6.5191747693
 H       -10.0309738005       -1.5908949838        4.9966241859
 H        -9.5419900611        1.0649322341        6.6745400777
 H       -10.9935567632       -0.0040623230        6.3143226873
 H        -8.9367181512        5.4416849646        3.2872306506
 H       -10.5734992710        5.6873372188        4.2078310622
 H       -10.3342297855        5.1221219183        1.0437865227
 H       -10.6746861909        6.5742206800        1.7652714617
 H       -13.7367621370        7.6008163896       -1.6036214867
 H       -13.2694432468        5.8076108070       -1.3615782371
 H       -11.1533737854        7.8910404377       -1.6681247205
 H       -12.0047469510        7.4328346256       -3.1746937447
 H        -6.7896084844        6.5272376892       -2.9770813148
 H        -6.8373644993        8.2069810552       -3.0269244787
 H        -8.6013494103        7.3400770366       -5.2553510956
 H        -6.9288446974        6.5657845945       -5.4780600589
 H        -3.7020845113        8.3223880131       -8.1879027193
 H        -4.2049403557        6.8759528252       -7.1563369733
 H        -4.0760385809        8.5600192475       -6.3360539080
 H        -8.1548934342        9.4635756741       -8.7483650622
 H        -9.0388860271        9.2153597014       -7.1250730390
 H        -8.1660916476        7.8499506826       -7.9210558552
 H        -5.0741749217       10.4592301378       -7.1917365126
 H        -6.3167970479       11.2442832852       -6.4450435567
 H        -6.4885908890       10.9338280247       -8.2131819615
 H        -7.7235470932        4.8695230746       -1.4918618996
 H        -9.1582028483        4.6555033007       -0.5094969783
 H        -8.1801455957        6.2788298590       -0.6931088527
 H        -8.0447927633        4.5812351112       -3.3085800269
 H        -9.0683367788        5.2034315423       -4.6810596624
 H        -9.5652317591        3.9333454015       -3.6557069770
 H       -14.2120023155        5.0886203755       -0.1487488071
 H       -15.1388689841        6.4531733152        0.4344452184
 H       -15.0822614985        4.9801105061        1.3828736262
 H       -13.7966809980        7.9328914433        2.2878495184
 H       -12.3174993830        7.4317294112        2.9528069858
 H       -13.9496291694        6.5466523473        3.2681458248
 H       -12.1915710831        4.3125288409        5.2639289192
 H       -11.4221210650        3.7324612244        6.8495401552
 H       -12.4941889102        2.7265301014        5.8685818106
 H        -8.7412813075        2.5515862161        6.4369822721
 H        -9.2502883744        4.2242557161        6.4163188263
 H        -8.2611709138        3.5889141522        5.1430566263
 H        -7.4944647898       -3.8753011892        3.6871780977
 H        -7.6493487052       -3.0065019396        5.1910325149
 H        -6.0272737126       -3.1271429441        4.4713186578
 H        -6.9380681335       -0.3956839653        1.9247098810
 H        -6.0232338664       -1.8767906524        2.2810964523
 H        -5.7050855485       -0.3999531453        3.2012215173
 H       -13.4192986275       -3.0131632418       -1.2827700086
 H       -14.6363494476       -1.9041396807       -1.3242261449
 H       -13.8619339303       -2.2100850058        0.1998978674
 H       -11.5267201422       -2.6152045318       -2.2778499632
 H       -10.7921939014       -0.8511810619       -2.4750743613
 H       -12.2929743210       -1.3102666741       -3.2257881406
 Na      -11.9789587422        1.5058896167        1.8572926714
