117

 C       -13.3076382676        1.0942984917       -2.2985147744
 C       -13.1171563941        0.4748726711       -0.9610106411
 O       -13.4041335705        1.1392783277        0.0473028403
 C       -12.4631190475       -0.9475456968       -0.8586303208
 C       -11.5104048041       -0.9722719731        0.4770879705
 O       -11.9413982575       -0.4652102960        1.4944299614
 C       -10.2850671858       -1.8983752744        0.5746369565
 C        -9.1328648910       -1.3943564142        1.3650110846
 C        -8.8261085748       -1.9705943918        2.8439529160
 O        -9.5638213476       -2.8193073254        3.2565835129
 C        -7.5320306585       -1.6106801461        3.6573088572
 C        -8.1162944742       -0.4495866550        4.6853682943
 O        -7.5677979026        0.6551118986        4.8524771625
 C        -9.3919605568       -0.8136638923        5.4554253392
 C        -9.9550308540        0.3416497376        6.1515650441
 C       -10.5507600077        1.3073020422        5.0219500957
 O       -11.2777016454        0.7991330159        4.1850163564
 C       -10.2172275976        2.8558277107        4.9238659363
 C       -10.2105792509        3.4893671427        3.5553199465
 O       -10.0150063485        2.8488977912        2.5328779538
 C       -10.2220051306        4.9799878779        3.4652028889
 C       -10.8317715037        5.6224275178        2.1223164076
 C       -12.3552320499        5.3566494462        1.8338982742
 O       -12.8285088890        4.3085540012        2.1833320225
 C       -13.4377202078        6.5083960415        1.3174350513
 C       -12.6940323893        7.2999302354        0.1753603596
 O       -11.8559253439        8.1074677869        0.6346434112
 C       -12.8901120779        7.0516182994       -1.3524824062
 C       -11.6807162036        7.2802766970       -2.2424949963
 C       -10.9002458003        5.9526304386       -2.3010730132
 O       -11.3740935172        4.8804440456       -2.3154990653
 C        -9.3108197060        5.8142281051       -2.5092737742
 C        -8.5437464317        7.2126166908       -2.8467646062
 O        -9.0953722304        8.2437119008       -2.6455760362
 C        -7.0110520778        7.0872872669       -3.5847066511
 C        -7.3909250890        7.4141369227       -4.9949797324
 C        -6.4932918246        8.4640209649       -5.5978909681
 O        -5.8639776734        9.0897658867       -4.7597772200
 C        -6.4469395799        8.7834873373       -7.1859341617
 C        -5.5517920444        7.6653679326       -7.7909947312
 O        -6.0634493962        6.5467551893       -7.9150728114
 C        -4.1121209246        7.7976534893       -8.2751003051
 C        -7.9737397645        8.5507458029       -7.5138785465
 C        -5.8903109305       10.1879594414       -7.4738230668
 C        -8.6975575355        5.2631160921       -1.1254048230
 C        -8.9297261197        4.7456263093       -3.6369554797
 C       -14.5868761890        5.4548569116        0.9895269829
 C       -13.9908319209        7.4378281016        2.3905186293
 C       -11.3413137753        3.4005489280        5.8949791935
 C        -8.8713110884        3.0685487784        5.5511079214
 C        -7.0624951946       -2.9058570287        4.3777928179
 C        -6.6220471737       -0.9505689557        2.5879243117
 C       -13.7776570367       -1.8711745521       -0.6350888503
 C       -11.7323204593       -1.4639420181       -2.0199376662
 H       -12.4267588782        0.9501513440       -2.8853526896
 H       -13.4173918705        2.1141910588       -2.1875071111
 H       -14.1659601068        0.6586201488       -2.8977317839
 H        -9.9340348740       -2.2695121008       -0.3319795362
 H       -10.5175911076       -2.9830276798        0.8144549893
 H        -9.1239641517       -0.2104897459        1.6099065398
 H        -8.2612063698       -1.4660539023        0.8141899549
 H        -9.2407396107       -1.5791064885        6.2164456163
 H        -9.9241860337       -1.2787069378        4.6796509956
 H        -9.2271368579        0.7881758534        6.8532896949
 H       -10.7290922338        0.0134162755        6.7949441531
 H        -9.2309318114        5.4739584446        3.4060672121
 H       -10.6398737418        5.3263814590        4.3307130210
 H       -10.3050979716        5.2708654348        1.3423002123
 H       -10.7195912919        6.6563715401        1.9442295006
 H       -13.5207647029        7.8390384936       -1.5653767783
 H       -13.3495570277        6.1914318717       -1.5409386372
 H       -11.1304930676        8.1568693087       -1.9695573950
 H       -12.0005839077        7.4325427018       -3.2850015397
 H        -6.5151440053        6.1110643505       -3.3479021827
 H        -6.3399964017        7.8398452624       -3.1009331882
 H        -8.4118649208        7.6827028826       -5.2021514658
 H        -7.3013482633        6.4103915939       -5.5719601109
 H        -4.1850923209        7.5143806369       -9.2857118686
 H        -3.5432437804        7.0964687715       -7.8227200418
 H        -3.7810762755        8.8253202752       -8.2019963726
 H        -8.1535607751        9.0415544688       -8.4172068815
 H        -8.6112111863        8.8838415349       -6.6937424689
 H        -8.0795665391        7.4627877500       -7.6129930178
 H        -5.2856365442       10.5046063208       -6.5970280990
 H        -6.6537566610       10.9629159121       -7.4279719898
 H        -5.3234752186       10.3369655807       -8.3960596944
 H        -7.9431557583        4.5191107223       -1.2823572583
 H        -9.5605009333        4.7348106744       -0.7568979160
 H        -8.3049143426        5.9939817510       -0.4774745299
 H        -7.9473946787        4.6850065681       -3.9963038966
 H        -9.6546689110        5.1119789343       -4.4759587874
 H        -9.3437295365        3.7642844829       -3.4568282800
 H       -14.1951270980        4.6308255124        0.3627809697
 H       -15.4144376665        5.7925183445        0.3635890351
 H       -14.9668504544        5.0127572212        1.8871663408
 H       -15.0978622218        7.6010737297        2.3539862448
 H       -13.6074065071        8.3946045069        2.2174900767
 H       -13.6861831661        7.2372365647        3.3966093284
 H       -11.6484799928        4.4343305361        5.7322706116
 H       -10.8881959329        3.3232312220        6.8690300074
 H       -12.1767639724        2.8168959395        5.9528965451
 H        -8.9324558039        3.9187358416        6.3314007176
 H        -8.0508270984        3.4296366131        4.9473777103
 H        -8.5486793461        2.1497008407        6.0988920058
 H        -6.9006679501       -3.7553657048        3.6444092228
 H        -7.7231497402       -3.2074800031        5.1777581739
 H        -6.0168276160       -2.7338744460        4.8157747060
 H        -7.0974763683        0.0388314526        2.5639730340
 H        -6.4578757814       -1.6052508133        1.7392860283
 H        -5.6305232575       -0.9489478179        3.0957768143
 H       -13.6041249028       -2.9484078213       -0.3458696480
 H       -14.2830746780       -1.9821691686       -1.6851580192
 H       -14.4586475367       -1.4900604224        0.1089582061
 H       -11.2624143313       -2.2718913902       -1.5643776225
 H       -10.9465291820       -0.7191659013       -2.2765216305
 H       -12.3734249147       -1.7469804369       -2.8567060822
 Na      -12.0503335915        1.8701389818        1.8835898906
