117

 C       -13.7664779005        1.1377304421       -2.0674554330
 C       -13.0716759770        0.8304763967       -0.6985817438
 O       -13.1655562066        1.7134661659        0.1332286605
 C       -12.5101635566       -0.4784837033       -0.4570536690
 C       -11.4948603836       -0.7334646912        0.8287418048
 O       -11.5002551792       -0.0168246254        1.8092418125
 C       -10.5891878736       -2.0654032607        1.0693690023
 C        -9.0767327606       -1.8623372723        1.3459815611
 C        -8.8238515567       -2.3173528225        2.8276792346
 O        -9.4688578398       -3.1168602794        3.4739154740
 C        -7.6788266684       -1.6060932911        3.6181277207
 C        -8.2946463987       -0.3765486081        4.4008646828
 O        -8.0182263859        0.7406158776        4.1417017117
 C        -9.5406276462       -0.6900202059        5.2916731158
 C        -9.9495504605        0.6030774748        6.0283399075
 C       -10.5268012710        1.5925280645        5.0646386365
 O       -11.3892524587        1.1294943525        4.3828298375
 C       -10.1733157395        3.0739597973        5.0951061516
 C       -10.5232227199        3.9259254662        3.6830467840
 O       -10.5992958846        3.2811477098        2.6470078785
 C       -10.8124728155        5.5239233908        3.5229906531
 C       -11.2581074726        5.7476511242        2.0553976079
 C       -12.8422697452        5.3119731501        1.9497449347
 O       -13.3312135574        4.2220021380        2.1496630038
 C       -13.7602659111        6.4551140833        1.3910687402
 C       -12.8714523574        7.3422999990        0.3281035144
 O       -12.0379473816        8.0810235640        0.7518652340
 C       -12.8574031560        7.0378430544       -1.1137498327
 C       -11.2435747550        7.1078690542       -1.7189819885
 C       -10.5736480732        5.7964785010       -2.3333543980
 O       -11.4245044651        4.8513022511       -2.4017684475
 C        -8.9702741370        5.6987918030       -2.6994035404
 C        -8.4575008162        7.1578239121       -3.1402915202
 O        -9.1780110205        8.1254065478       -3.1372357009
 C        -7.0831696350        7.1642072378       -3.8155963332
 C        -6.9817622686        6.9461382805       -5.3666566616
 C        -5.8594298939        7.9199862361       -5.7971462668
 O        -5.0381141018        8.3714866938       -5.0603624396
 C        -5.9611813252        8.2721734740       -7.3938948966
 C        -5.2512744084        6.9920251578       -8.1636013912
 O        -5.3761462666        5.8230909358       -7.7936421740
 C        -4.3233538524        7.4485214239       -9.3783085393
 C        -7.5162906571        8.3356841788       -7.7901677996
 C        -5.3032611504        9.6390179738       -7.7368985963
 C        -8.2832012184        5.1598543837       -1.4085113648
 C        -8.7146796558        4.6247070476       -3.6953290825
 C       -14.9039808441        5.7734167896        0.7153826112
 C       -14.1186288002        7.4002865641        2.5452337621
 C       -11.0761191136        3.7689035248        6.1214093636
 C        -8.6794080529        3.3864447289        5.4663906504
 C        -7.0474053060       -2.7464504952        4.4964435786
 C        -6.4211537122       -1.2251101326        2.6064485123
 C       -13.8904801336       -1.3724301092       -0.0873587583
 C       -12.0688948280       -1.3480705745       -1.7979524254
 H       -12.9217461057        1.4620850801       -2.6876999117
 H       -14.4210497112        2.0375201397       -1.9866290488
 H       -14.3191785131        0.4446578111       -2.5649276987
 H       -10.7825374429       -2.9249787968        0.3514701258
 H       -11.0920855723       -2.5164495708        1.9214911437
 H        -8.6855610250       -0.8464389555        1.2004716080
 H        -8.2670127759       -2.4066506918        0.5831005824
 H        -9.2580946454       -1.5026663630        5.9708842760
 H       -10.2957780455       -1.1628244681        4.7411561223
 H        -9.1428389468        1.0753994927        6.4925159384
 H       -10.6094592879        0.4472226401        6.9137251713
 H        -9.9620796467        6.1342278578        3.8462255128
 H       -11.7005026880        5.8256272909        4.2336094633
 H       -10.8119423217        5.0083367619        1.4168403325
 H       -11.2018974954        6.6721468742        1.6685896225
 H       -13.3244022721        7.7553998637       -1.6444686965
 H       -13.4071653773        6.1913317034       -1.2793839791
 H       -10.5272133145        7.5566131627       -1.0064626696
 H       -11.1971542478        7.7546845608       -2.5569487039
 H        -6.4424847296        6.4467273267       -3.2286893486
 H        -6.8003879127        8.2276059493       -3.6393566240
 H        -7.8485194918        7.2724228784       -6.0364271755
 H        -6.8791444244        5.9205555117       -5.7124657928
 H        -4.8494742203        8.0548388901      -10.0335805185
 H        -4.0138764176        6.5363459479       -9.9095433989
 H        -3.5097774774        7.9647557672       -9.0201174731
 H        -7.6268207683        8.9353995943       -8.6732620497
 H        -8.0501243805        8.6998040403       -6.9165147250
 H        -7.7765219321        7.3567124494       -8.0255544792
 H        -6.0060927540       10.4159140266       -7.9866750393
 H        -4.6565550619        9.5621507007       -8.6284673249
 H        -4.7552334352       10.1376405873       -6.9322425071
 H        -7.3575632199        4.9417128819       -1.8538762575
 H        -8.6199760434        4.3003974783       -0.9474449216
 H        -8.2268934196        5.9528388338       -0.6883822066
 H        -7.7071402037        4.2070742832       -3.4670987500
 H        -8.6479163074        5.0378105690       -4.6139727383
 H        -9.3739060241        3.7602061141       -3.5153828731
 H       -14.6187279640        4.8144085332        0.2928000624
 H       -15.2850511739        6.3319149179       -0.1374194247
 H       -15.7870053838        5.5267523257        1.3278565594
 H       -14.2448736717        8.3221295172        2.1481183607
 H       -13.5362329038        7.3027135644        3.4663623101
 H       -15.0719485008        7.1791076807        2.9673320418
 H       -10.8651910981        4.7429278617        6.1188348326
 H       -10.8633552494        3.4786022006        7.2201201402
 H       -12.1150460697        3.5618934100        5.9538517279
 H        -8.1077749264        2.4534528877        5.2927332024
 H        -8.3672255127        3.7188028519        6.5022317547
 H        -8.1816414851        4.1324552756        4.8311203975
 H        -6.7307228360       -3.6252750482        3.9291326115
 H        -7.8962228399       -3.2207803890        5.1178335032
 H        -6.2518654145       -2.4490806878        5.1762863098
 H        -6.5543124284       -0.2012806891        2.1329176295
 H        -6.5569588124       -2.0368432859        1.8197929225
 H        -5.5150558588       -1.2651999844        3.2518506845
 H       -13.7645559247       -2.4300247784       -0.3514970104
 H       -14.6369140166       -0.8330193194       -0.6318389148
 H       -14.3530506142       -1.4801009418        0.9669516889
 H       -11.5296517982       -2.2544663368       -1.6776808255
 H       -11.3477009936       -0.7740184894       -2.2738857441
 H       -12.9812527873       -1.5355977164       -2.2753628725
 Na      -12.7246617447        2.1377377535        2.5072757141
