117

 C        -3.0719983641        4.6898217921        7.7272155454
 C        -3.7827907415        6.1040175000        7.4261599866
 O        -3.1400472161        6.9380386379        6.8226957665
 C        -5.4126743883        6.1853774577        7.5758270701
 C        -5.9028922927        5.2410596903        6.3823784201
 O        -5.7706552911        4.0176318969        6.6304518611
 C        -6.2199631927        5.7469578286        5.0630014373
 C        -6.8070829814        4.6094749804        4.0937438091
 C        -6.9969706986        5.0965774965        2.7195929418
 O        -7.9897079939        5.6855621771        2.3696972436
 C        -5.7803791920        4.9796966656        1.6450400137
 C        -5.9536856921        3.5642035705        1.0546772340
 O        -5.2769592345        2.6186331167        1.4014256044
 C        -7.3963934643        3.3608658823        0.3571955971
 C        -7.2739700299        2.1192951209       -0.5044924626
 C        -8.4466694634        1.1944206661       -0.6623691237
 O        -9.1122285487        1.2891218911       -1.6638247100
 C        -8.7759638912        0.0875949315        0.4439182595
 C        -9.6625846979        0.6369830601        1.7102374206
 O        -9.0831041537        1.0985964573        2.6423760963
 C       -11.1839462711        0.3469134242        1.6622420826
 C       -12.1593910931        1.5604743272        1.6834642321
 C       -11.7802023752        2.7479691728        0.7391286668
 O       -10.6887234407        2.9976813777        0.2586054411
 C       -12.9736644411        3.7348608407        0.4103901359
 C       -13.8644133999        2.9735437829       -0.6864126754
 O       -13.2651169492        2.1746299646       -1.3517209055
 C       -15.4561253611        3.1555778821       -0.7525066833
 C       -15.8611815913        3.6475968159       -2.1897100242
 C       -15.1656988517        4.9280623171       -2.7108942705
 O       -14.5871376579        5.7126860225       -1.9341401699
 C       -15.0662663927        5.1922362439       -4.2859251059
 C       -13.6257444678        4.8017843347       -4.7643233440
 O       -13.3278168040        3.6444232021       -4.8416636323
 C       -12.6201954032        5.8854129436       -5.1647802373
 C       -11.4356247461        5.3129854513       -5.8940387683
 C       -10.7461241221        4.2269021847       -5.1188128203
 O       -10.6551937779        4.4442071610       -3.8617818076
 C       -10.1760483744        2.7827512305       -5.6421097808
 C       -11.0737901408        1.5606136839       -5.4277953110
 O       -11.4458172637        1.3297184120       -4.3104676975
 C       -11.5613812776        0.5051372388       -6.4250196995
 C        -9.8424986407        3.0160465760       -7.1858008569
 C        -8.8788487482        2.3937119002       -4.9025844332
 C       -16.0341024934        4.3056200031       -5.1073181742
 C       -15.3221847540        6.6483570093       -4.4933087478
 C       -13.7051858436        4.0889843284        1.6530565230
 C       -12.4649993274        5.0048910546       -0.2982974544
 C        -9.4765674782       -1.0265170525       -0.3603419786
 C        -7.4693448903       -0.4758505798        0.9990608612
 C        -6.0320527411        6.0758825587        0.5276367755
 C        -4.4492607091        5.0731378632        2.2862114188
 C        -5.7723933238        5.6455407772        8.9100026758
 C        -6.0492928989        7.5614029579        7.4525273467
 H        -2.0399071640        4.8557740034        7.9647870747
 H        -3.1241232748        3.9795639291        6.9033621968
 H        -3.5418098685        4.3238108804        8.6603885927
 H        -5.3112618709        6.1266395800        4.6271401391
 H        -6.8912870608        6.6239718250        5.0194511943
 H        -7.8043282180        4.2725188462        4.5362153661
 H        -6.1495757242        3.6620757901        4.1661934324
 H        -7.6382281952        4.2411722685       -0.2417201617
 H        -8.1364243758        3.3489735560        1.2549265323
 H        -6.3596699403        1.6738976191       -0.1715219131
 H        -7.0893787262        2.4063725847       -1.5360281172
 H       -11.4450548693       -0.3257510043        2.4419576788
 H       -11.2737860424       -0.2269044035        0.7688776761
 H       -12.0558145267        1.9413452686        2.7714276521
 H       -13.1835615176        1.2769119248        1.5740705854
 H       -15.7572518450        3.7307162264        0.1444192738
 H       -15.7435516931        2.1693486743       -0.6697599248
 H       -16.8863809632        3.7258227694       -2.4536035312
 H       -15.5035164216        2.8463063192       -2.8123436830
 H       -12.3135489149        6.3111000858       -4.1839849108
 H       -13.1726110065        6.6842540244       -5.7107386472
 H       -10.8171328912        6.2069423030       -6.0526122457
 H       -11.6708451634        5.0852699563       -6.9562455917
 H       -11.0654727680        0.4301956178       -7.3787417405
 H       -12.5033095877        0.8755388161       -6.6179291544
 H       -11.4130754829       -0.4608140936       -5.9489747765
 H        -9.0525107245        3.6958472206       -7.3961814556
 H       -10.7185068433        3.4953347693       -7.7178434680
 H        -9.5308067898        2.0782315272       -7.6922314719
 H        -9.1055655698        2.2791136389       -3.8445063600
 H        -8.1570800942        3.2124879248       -4.9143974669
 H        -8.3705330843        1.5976355313       -5.3062958281
 H       -15.6655024400        3.3256224796       -5.0042555674
 H       -15.9766719411        4.5251334237       -6.1575379887
 H       -17.0407346206        4.3336356872       -4.8035513326
 H       -15.3411146979        6.8672830670       -5.5843465737
 H       -14.6475151558        7.3777552792       -3.8796654757
 H       -16.3151166966        6.8679788277       -4.1881755180
 H       -13.0230217550        4.6311941728        2.3263169226
 H       -14.0473308504        3.2233700775        2.1887426202
 H       -14.4517260790        4.8755957869        1.4530627644
 H       -11.5041735069        5.2406882487        0.0178667832
 H       -13.0030589613        5.9010090456       -0.1427808951
 H       -12.4324692500        4.6994699060       -1.3237581745
 H        -9.8058396041       -1.8128027298        0.2785970804
 H        -8.8338294791       -1.5665117518       -1.0797148068
 H       -10.1615399380       -0.5416649625       -1.0802765678
 H        -7.0461142822        0.1215644073        1.7975757891
 H        -6.7184267134       -0.5738150037        0.2773265067
 H        -7.6682844995       -1.5145018584        1.4838205607
 H        -5.7860460457        7.0414422448        0.9289630624
 H        -7.0953210716        6.0960851600        0.2638635040
 H        -5.4193709553        5.7703263492       -0.3316310231
 H        -4.4615950759        5.2286138156        3.3565456887
 H        -3.7676446414        5.7715790277        1.7641403945
 H        -3.8907415149        4.1292770215        2.2092076508
 H        -5.4822820739        4.6312853041        9.1985631087
 H        -6.8283000149        5.6874044059        9.0827189171
 H        -5.3599538469        6.3559486435        9.6345758176
 H        -6.8338999675        7.7604656085        8.2293305783
 H        -6.5661245163        7.7465095517        6.5064223416
 H        -5.3199982635        8.3865906056        7.5839439303
 Na      -10.8541618023        2.7094106969       -2.2034577340
