117

 C       -13.6913672876        1.3450838241       -1.7303774328
 C       -13.2387964114        0.9792297662       -0.3616540490
 O       -13.2762219206        1.7864180921        0.5851332886
 C       -12.7443660428       -0.5061040882        0.0008734068
 C       -11.6472802758       -0.5557555023        0.9996512809
 O       -11.1541679410        0.4361282001        1.4419562934
 C       -11.0573223339       -1.9358133128        1.2359092479
 C        -9.4687071491       -1.9890275998        1.2959905352
 C        -9.0691027500       -2.5232789693        2.7105655640
 O        -9.8508415092       -3.2625036124        3.2801011065
 C        -7.8703568510       -1.8782363724        3.4980946380
 C        -8.4396531811       -0.4347141695        3.9896702722
 O        -8.1052150954        0.5017507932        3.3343219871
 C        -9.3556330320       -0.4027104276        5.3531781149
 C        -9.5346440370        0.9368674848        6.0478463629
 C       -10.5043376325        2.0004265435        5.3923335938
 O       -11.5888843758        1.5887027010        5.0547463518
 C       -10.2613305409        3.5363762935        5.4186125732
 C       -10.7554211731        4.1554767401        3.9637283598
 O       -10.3342740109        3.5426428069        3.0158427619
 C       -11.5573099823        5.4793168488        4.0086098880
 C       -11.8746979060        6.1377150160        2.6092373832
 C       -13.2848043315        5.5402079543        1.9966443754
 O       -13.5475122374        4.3343329148        2.0946986412
 C       -14.1094687825        6.6234714167        1.4314841618
 C       -13.0391420073        7.4461834484        0.2844979882
 O       -12.8934638454        8.6058422273        0.2934006577
 C       -12.2267617913        6.4454082379       -0.8188044389
 C       -10.8141728321        6.7684070411       -1.2176673667
 C       -10.3560778826        5.5235412358       -2.3483108824
 O       -11.1321996131        4.8105841768       -2.8479414003
 C        -8.8112667241        5.5870680401       -2.8151193590
 C        -8.4121722919        6.8408590665       -3.7317231498
 O        -9.2541784319        7.6601699309       -3.9200467246
 C        -7.0155582113        6.9279629276       -4.1936723924
 C        -6.8570614791        6.9465415377       -5.6875529901
 C        -5.3718398024        7.4124843308       -6.2522092093
 O        -4.3568171017        7.3816558377       -5.6685390040
 C        -5.3093742088        7.9104742776       -7.8359870196
 C        -4.8748641484        6.4955812454       -8.5814876231
 O        -4.9159558344        5.5388812873       -7.7767188325
 C        -4.6002688608        6.1615143052      -10.1173027894
 C        -6.7082655509        8.5134758395       -8.4103998149
 C        -4.1139977500        8.8274989123       -7.9479101554
 C        -7.8810138635        5.8141625357       -1.5003528785
 C        -8.6153958745        4.3092634696       -3.5133860856
 C       -15.3958766818        6.1891099116        0.6855774524
 C       -14.4433415315        7.7885658983        2.4356657761
 C       -11.1594499905        4.0694355457        6.5460665427
 C        -8.7567339206        4.0341047564        5.7299535879
 C        -7.5767633412       -2.7701289141        4.7411223120
 C        -6.5047044338       -1.5632407610        2.6939220837
 C       -14.1436447129       -0.9768560190        0.7347740352
 C       -12.3187139797       -1.0803737846       -1.4176447647
 H       -12.9095253742        1.3021426983       -2.5283560006
 H       -14.1359006862        2.3251264861       -1.5641196705
 H       -14.5368081561        0.7183073964       -2.0754812903
 H       -11.3171127245       -2.5184483848        0.4352290016
 H       -11.3966902847       -2.1978276648        2.2894239212
 H        -9.0343196213       -1.0330481848        1.1346267660
 H        -9.2233170556       -2.6145176372        0.4814381491
 H        -8.6862351362       -0.9369452134        6.0884398939
 H       -10.2440671870       -1.1015926443        5.3117977209
 H        -8.6116058614        1.5630385691        6.1004232011
 H       -10.0356314067        0.7835551860        7.0076414102
 H       -11.0626944624        6.2337640787        4.5916227602
 H       -12.5707718417        5.4722415731        4.4888970315
 H       -11.2011297519        5.8126120900        1.7106196117
 H       -12.0757648152        7.2607384859        2.8229748806
 H       -12.8861123292        6.3946290416       -1.7585868304
 H       -12.1628260074        5.4200153661       -0.2445148032
 H       -10.2260036207        7.1693495428       -0.4286244139
 H       -10.9706320361        7.6180640161       -1.8878976137
 H        -6.4442494384        6.0929808497       -3.8195693352
 H        -6.7153801406        7.8617282638       -3.6797611016
 H        -7.5621934617        7.5703430968       -6.1704909072
 H        -6.9828650315        5.9406348612       -6.1910259938
 H        -3.9909290366        6.9341506051      -10.5307629417
 H        -5.5224449977        6.0112957543      -10.6583675772
 H        -4.1417942431        5.1487607714      -10.0729996497
 H        -6.4640438344        9.1872866352       -9.1693108708
 H        -7.1474216381        9.2335282914       -7.6205996184
 H        -7.3126959309        7.7257348561       -8.7476597960
 H        -3.8156891443        8.8469798979       -8.9475260982
 H        -3.3331566067        8.6304671202       -7.2625440162
 H        -4.4363635904        9.9395872935       -7.7407501698
 H        -6.8638440726        5.4484322588       -1.6637702600
 H        -8.3201600457        5.5007489835       -0.6227839315
 H        -7.7356200384        6.8648642528       -1.5137094768
 H        -7.5979606554        4.2411727996       -3.7563872555
 H        -9.2252177665        4.4027078254       -4.4227294515
 H        -9.0256107094        3.4869099520       -2.9233300235
 H       -15.4499211119        6.4963115039       -0.3607568596
 H       -16.3008221687        6.5756354042        1.1591695632
 H       -15.6000135730        5.1395954158        0.6368615289
 H       -15.4660093420        8.1541542723        2.2772948866
 H       -13.8856949968        8.6766601478        2.1221335713
 H       -14.4081451398        7.5551349148        3.5020589671
 H       -11.0031890175        5.1327944035        6.6917442934
 H       -10.8834542429        3.5831036975        7.5015475480
 H       -12.3109000534        3.9208230941        6.3231432042
 H        -8.0962569456        3.5277859918        6.5115633412
 H        -8.8707583519        5.0806487047        6.0418860413
 H        -8.1091157627        3.8664746679        4.8961400530
 H        -6.9844274977       -3.6714363512        4.4399083041
 H        -8.4704331642       -3.1750281668        5.3126774911
 H        -6.9784565540       -2.3548809741        5.6020461095
 H        -6.7166186051       -0.9676520171        1.7260916120
 H        -6.2058303402       -2.5629909604        2.3147241111
 H        -5.8747913319       -0.9508404711        3.3702857318
 H       -14.1794022389       -2.0728860421        0.7726565362
 H       -15.1597319634       -0.6372358833        0.4365160969
 H       -14.0010631756       -0.5366122781        1.7479629072
 H       -12.3144025662       -2.1263236593       -1.3841770468
 H       -11.3697042481       -0.6392735105       -1.7818217934
 H       -13.1205107578       -0.8318410492       -2.1195011519
 Na      -12.4190536679        2.2866319560        2.9285565278
