117

 C       -13.6819746151        1.5275352888       -1.6569334736
 C       -13.3294183857        1.1176662739       -0.2717766475
 O       -13.4122490821        1.9208253667        0.6323895652
 C       -12.9796516454       -0.3980654851        0.0633779969
 C       -11.5607851342       -0.5125092740        1.0233923322
 O       -11.1782187445        0.4855904971        1.5876387001
 C       -10.9811667526       -1.9958607779        1.2743939295
 C        -9.4549089589       -1.9937995955        1.3473754513
 C        -9.1320678199       -2.5109883146        2.7860920548
 O        -9.8889022421       -3.3093204402        3.3302283678
 C        -7.9482972944       -1.9572973708        3.5716858399
 C        -8.4815073059       -0.4995280858        4.0821147222
 O        -8.1814854035        0.4625389952        3.4451966015
 C        -9.3844227378       -0.2930048454        5.3134063185
 C        -9.4729764377        1.1053169139        5.9228779769
 C       -10.5055851452        2.0748209182        5.2460412879
 O       -11.5217831691        1.7505772682        4.7725386571
 C       -10.2811894399        3.6687615461        5.4921062660
 C       -10.6331988058        4.2775096142        4.1430549789
 O       -10.2978904620        3.6549770939        3.1011336190
 C       -11.5486274342        5.4626000918        4.1003188282
 C       -11.9965306170        6.1326323346        2.8210499878
 C       -13.2130010329        5.5479425746        2.0044090603
 O       -13.4272066619        4.3781278098        2.0535511159
 C       -14.0899579720        6.7346704834        1.3198623576
 C       -13.0941731251        7.3287696846        0.1420588076
 O       -12.9395481258        8.5077540087        0.1672530853
 C       -12.4223249240        6.3804770340       -0.7716720852
 C       -10.8550343677        6.5867805343       -1.2813237171
 C       -10.3247487121        5.7058557949       -2.2919510612
 O       -11.0253199644        4.8468518464       -2.8515409032
 C        -8.7934815195        5.5936519857       -2.7362133676
 C        -8.4502661217        6.7761940559       -3.7149313004
 O        -9.2281739160        7.5793735692       -4.1518879522
 C        -6.8386909131        6.8834904394       -4.2727750231
 C        -6.7774748603        6.8986625646       -5.8015895494
 C        -5.4792201937        7.4241414606       -6.3952875613
 O        -4.5103066725        7.2558502065       -5.7020638473
 C        -5.1592544072        7.8287180065       -7.9979963085
 C        -4.9639873507        6.3790039894       -8.5324603709
 O        -4.8719416255        5.4448352028       -7.7924574152
 C        -4.7014922745        6.1317299896       -9.9870770914
 C        -6.3533494729        8.5280263394       -8.7144987675
 C        -3.9162365667        8.6784314158       -8.0389734372
 C        -7.7792575910        5.8217118029       -1.4437477139
 C        -8.5105184554        4.2080540351       -3.4473370393
 C       -15.4281684280        6.0765342340        0.7888879129
 C       -14.4064628294        7.8366043735        2.3768502879
 C       -11.0883716220        3.9474977224        6.7869198346
 C        -8.8383291484        4.1601756245        5.7216802615
 C        -7.4693557211       -2.9486869150        4.6404313825
 C        -6.6200710382       -1.4615091681        2.8429448382
 C       -14.1556672139       -1.0588054587        0.7502574034
 C       -12.5697763054       -1.0806422315       -1.3227388732
 H       -12.7889158323        1.3629461052       -2.3394846272
 H       -14.0187032410        2.6269879888       -1.5564108719
 H       -14.4641169580        0.9819257213       -2.1045400280
 H       -11.1614393586       -2.4928869014        0.3097134402
 H       -11.5151001301       -2.2133530756        2.2499598902
 H        -9.1125900626       -1.0442523994        1.1508894688
 H        -9.1182805198       -2.7552005153        0.4989590505
 H        -9.0951681116       -0.9733090786        6.2008995849
 H       -10.4204225500       -0.6776464016        5.0798861073
 H        -8.6213743181        1.6910081159        5.8363770524
 H        -9.8997539458        1.0966883076        6.9499105797
 H       -11.2340693886        6.2235581141        4.6588865072
 H       -12.4986363048        5.2136961172        4.5866066916
 H       -11.1410634224        6.1292582086        2.0195051754
 H       -12.3486148039        7.1156026119        3.2001453062
 H       -13.1066229274        6.4525734057       -1.6781847614
 H       -12.4584430728        5.3026709028       -0.2866789621
 H       -10.1932544911        6.4967365196       -0.4003906805
 H       -10.7060333445        7.6036006832       -1.6073214218
 H        -6.2144202822        6.0890416491       -3.9446693581
 H        -6.4533534198        7.7963276555       -3.8838083079
 H        -7.4622779367        7.6924192284       -6.1745588468
 H        -6.9497984080        5.9906111577       -6.3116806291
 H        -3.9370824228        6.8121781041      -10.4012610966
 H        -5.7249674119        6.2327352468      -10.5704477265
 H        -4.5283962432        5.0693701214       -9.9946303174
 H        -5.9528082593        8.8702469510       -9.7104902145
 H        -6.6425292299        9.4712068862       -8.2427515343
 H        -7.1412376986        7.7717515280       -8.8344460877
 H        -3.5606018676        8.7591115452       -9.0592804729
 H        -3.0967027983        8.3597290533       -7.3276002351
 H        -4.1816243115        9.6530735475       -7.7044579788
 H        -6.9607051387        5.1230002129       -1.6779313561
 H        -8.1172572924        5.5672677803       -0.4566657435
 H        -7.2192187253        6.7647556787       -1.5453162166
 H        -7.4279227713        4.2639328900       -3.4892434755
 H        -8.9344815961        4.2105236738       -4.3744780429
 H        -8.9575686418        3.3054829415       -2.9357873611
 H       -15.8134850464        6.3259370178       -0.1857329983
 H       -16.2600529416        6.1981611993        1.4632911284
 H       -15.3114659696        4.9991205450        0.7173286416
 H       -15.4029147196        8.2000579533        2.3026383663
 H       -13.8264757907        8.8313151140        2.2680801926
 H       -14.4151536251        7.3483184828        3.3804802753
 H       -11.2838601373        4.9657343286        6.9650904012
 H       -10.3835954439        3.5321412509        7.6851122139
 H       -12.0284418945        3.4635646115        6.8015938363
 H        -8.1256264940        3.4170116928        6.0479399477
 H        -8.8407195371        4.9742630465        6.4757938010
 H        -8.3549005619        4.4295467502        4.8060732123
 H        -7.4505617221       -3.9620368904        4.2338007644
 H        -8.2515950388       -2.9781365855        5.4980346716
 H        -6.5729178763       -2.8502967740        5.2245730058
 H        -6.8899564895       -0.7010466818        2.1214669142
 H        -6.1733546237       -2.2740500761        2.2671907702
 H        -6.0580232651       -0.9956621938        3.6322240257
 H       -14.1375811112       -2.1415343821        0.7049574964
 H       -15.1217192804       -0.8038257218        0.4487148593
 H       -14.1267914949       -0.6465338810        1.8235995753
 H       -12.2302511415       -2.1446956175       -1.1345064839
 H       -11.7193701951       -0.4177216964       -1.6118922656
 H       -13.2685288167       -1.0347664496       -2.1781450061
 Na      -12.5198908010        2.3563415358        2.7676110128
