117

 C       -13.6635967048        1.7162750361       -1.6102305112
 C       -13.3936131337        1.2656968557       -0.1343479809
 O       -13.5518153324        2.0218731144        0.7817201980
 C       -12.9510089670       -0.2648263087        0.1236467496
 C       -11.7187719415       -0.4211250223        0.9849875850
 O       -11.2454948727        0.4154367937        1.7581149952
 C       -11.0748161340       -1.8318285987        1.0965477778
 C        -9.4811045041       -1.9068199522        1.4689841148
 C        -9.1612093030       -2.4602128484        2.8874271741
 O        -9.8123136928       -3.3324903587        3.4157871032
 C        -7.9581987542       -1.8570139011        3.7749901221
 C        -8.4896511678       -0.5021291528        4.2551850280
 O        -8.3054198351        0.5382941180        3.5484679991
 C        -9.6043068498       -0.3458831874        5.3829096124
 C        -9.3652363864        1.1381699121        5.7962188035
 C       -10.4034003896        2.1187970887        5.2257137019
 O       -11.3348736446        1.7683792251        4.4979097464
 C       -10.2172010290        3.6708444510        5.5737871427
 C       -10.8026677126        4.2699782294        4.2225787310
 O       -10.3203365814        3.9094696170        3.1269339968
 C       -11.7174475892        5.5466495517        4.3411457651
 C       -11.9126220313        6.2421990155        2.9822263215
 C       -13.1121486423        5.7058965206        2.2057881504
 O       -13.4343745021        4.5344203120        1.9559850495
 C       -13.9731315630        6.6568858362        1.3572415724
 C       -13.1229143790        7.1924255785        0.0346683156
 O       -12.9350057338        8.4189886136        0.0004646743
 C       -12.5054469272        6.1501201822       -0.9264693389
 C       -11.0357556391        6.6459372419       -1.0558539033
 C       -10.3099774020        5.6821637032       -2.2908597479
 O       -11.0408699152        4.8658127578       -2.8765581158
 C        -8.5326083038        5.6554152208       -2.7386270459
 C        -8.3067768252        6.7164096193       -3.8343297792
 O        -9.1887587815        7.4373850269       -4.3174590497
 C        -6.8874120944        6.8528697425       -4.4654273162
 C        -6.9898622637        6.9963822486       -5.9889593622
 C        -5.4664025601        7.3892695916       -6.4608331366
 O        -4.5207886566        7.3035911154       -5.6652629049
 C        -5.1187578208        7.6760040687       -7.9480247807
 C        -4.9117934389        6.1544257493       -8.5135014746
 O        -4.8997031696        5.2656930166       -7.7171321022
 C        -4.8023283534        6.1609755889      -10.0866832898
 C        -6.0461183313        8.4600625471       -8.8828868363
 C        -3.7551505370        8.4790660740       -8.0650270926
 C        -7.7734633012        5.7835512778       -1.4373781493
 C        -8.3800851037        4.2873758659       -3.2836445672
 C       -15.2559801442        5.9301465940        0.8380448797
 C       -14.4025804865        7.7947096869        2.1942824618
 C       -11.0370721757        3.8777711834        6.9102005283
 C        -8.7752792300        4.2322800491        5.7520431672
 C        -7.4921044594       -3.0090029599        4.6475043104
 C        -6.7298302593       -1.5850324133        2.7784880836
 C       -14.0591549152       -1.1532687035        0.7682127958
 C       -12.8182649648       -1.1489014480       -1.2137903510
 H       -12.7463771452        1.4724786694       -2.1217420258
 H       -13.9323442138        2.7635363966       -1.7089096960
 H       -14.4005526854        1.0989734547       -2.1722834436
 H       -11.2244711756       -2.4426361764        0.1327289637
 H       -11.5991742604       -1.9744014154        2.0139221010
 H        -9.1007762604       -0.7845276866        1.3129567551
 H        -9.0080137534       -2.6284172983        0.7519807229
 H        -9.7977554624       -1.0321198112        6.2158581297
 H       -10.5308215888       -0.3696830563        4.7832021604
 H        -8.5601366579        1.6220379250        5.2747912601
 H        -9.4278750130        1.4316142674        6.8281735694
 H       -11.1763387861        6.3128673034        5.0073122938
 H       -12.6311795398        5.4235036860        4.8239949973
 H       -11.1104435152        5.8318212722        2.4244186524
 H       -11.9866203945        7.3054993841        3.0010406761
 H       -12.9424098434        6.2780542523       -1.9109866959
 H       -12.5006753874        5.1716522705       -0.6026154759
 H       -10.4785253481        6.3292468654       -0.1340122976
 H       -10.9313111310        7.7383814139       -1.1479240567
 H        -6.3620657402        5.8965234662       -4.3226982518
 H        -6.3013975501        7.6188193127       -3.9726669065
 H        -7.7369731775        7.7488560261       -6.3969853748
 H        -7.0839611933        6.0326974057       -6.4523180513
 H        -3.9930708802        6.8936118380      -10.4118723931
 H        -5.7724493686        6.5532855025      -10.3908676540
 H        -4.7847199060        5.1572192913      -10.5269860356
 H        -5.5272352173        8.3097976148       -9.8800967665
 H        -5.9435074157        9.4859784680       -8.7692197706
 H        -7.1409161136        8.1123149073       -8.9076216872
 H        -3.4904658421        8.4832835053       -9.1792163187
 H        -2.9568390890        7.9083859153       -7.5549849792
 H        -3.7652491707        9.4207879192       -7.6276013444
 H        -7.0142801018        4.9563112318       -1.5136360928
 H        -8.4368056667        5.3049260573       -0.6065105863
 H        -7.1592586442        6.6715671561       -1.2209321791
 H        -7.2934212659        4.1421753504       -3.4318239413
 H        -9.0343670169        4.2063539191       -4.1879295181
 H        -8.8551521829        3.5553698939       -2.6523196068
 H       -15.8137465787        6.5296658150        0.1365621220
 H       -15.9656828234        5.7497580518        1.6288333127
 H       -15.1221593234        4.9787426570        0.2979996529
 H       -15.2855154489        8.3931738241        1.8739526031
 H       -13.6437707735        8.5815842854        2.2621450292
 H       -14.6860517042        7.3258524950        3.1575371964
 H       -11.4371428687        4.9273057084        6.9471297797
 H       -10.5073580131        3.6706962729        7.7351238857
 H       -11.9065126417        3.3119543788        6.8790802117
 H        -8.1000546228        3.4722837274        5.9774062574
 H        -8.7624558713        4.9247700848        6.5606585272
 H        -8.3321267912        4.6670354598        4.8129102588
 H        -7.7896950017       -3.9403293641        4.1988622816
 H        -7.9831403784       -2.9616284682        5.5762613626
 H        -6.4881819977       -3.1374403193        4.9873525553
 H        -7.0584130721       -0.9349983469        2.0668353368
 H        -6.4621692997       -2.4765626827        2.2648503912
 H        -5.8822306499       -1.1531174151        3.3273977470
 H       -13.8931637314       -2.2328715186        0.8017225985
 H       -14.8806778259       -0.9965454385        0.0917344923
 H       -14.4083223767       -0.7629179662        1.6723803781
 H       -12.5120450421       -2.1814318363       -0.8775640218
 H       -12.1450068036       -0.6726643927       -1.9510581604
 H       -13.7778565787       -1.1745404659       -1.7794166225
 Na      -12.5195298502        2.3947500750        2.5244539078
