117

 C       -13.5861119583        1.8063179895       -1.5103424151
 C       -13.4149007597        1.1509497091       -0.1197697570
 O       -13.7990479598        1.9608839376        0.7402866381
 C       -13.0203446925       -0.2901172548        0.0455832902
 C       -11.7350929464       -0.4722359713        1.1535922823
 O       -11.4184557732        0.4865731291        1.7810312883
 C       -11.0011105588       -1.8558624466        1.1146450284
 C        -9.5561272022       -1.6973002012        1.6703371158
 C        -9.2526594155       -2.3921253601        2.9460474506
 O        -9.8638999906       -3.3283414826        3.3780747476
 C        -8.0567833352       -1.9103339704        3.7224567055
 C        -8.6320254244       -0.5323161450        4.1946613583
 O        -8.2500963893        0.4633554632        3.6150211043
 C        -9.6207601666       -0.3076596437        5.3610559656
 C        -9.3311026215        1.1227862755        5.9156400365
 C       -10.2714735791        2.1805999577        5.1851010172
 O       -11.0973177826        1.6887016474        4.3804229648
 C       -10.2503573586        3.6383018466        5.5368476113
 C       -10.8336636676        4.4877888585        4.3692583232
 O       -10.5100872462        4.1970932722        3.2752800316
 C       -11.8319413364        5.6305562875        4.4850044903
 C       -11.9192772035        6.3191017990        2.9926052671
 C       -12.9931602378        5.6950440983        2.1167465653
 O       -13.2299174791        4.4915543407        2.1648985721
 C       -13.9964023406        6.6837168195        1.3479537589
 C       -13.1049335580        7.1412708818        0.0634528377
 O       -12.9479873785        8.2903985938       -0.2104863958
 C       -12.4755141318        6.0826722336       -0.9778339289
 C       -10.9487367128        6.4660332841       -1.1065248072
 C       -10.1724173869        5.6292147071       -2.2892339788
 O       -10.9575621502        4.9725787764       -2.9015499789
 C        -8.7294022578        5.6307727971       -2.5463419510
 C        -8.3263248525        6.7123598071       -3.9715981016
 O        -9.2540160544        7.3208136178       -4.3934486685
 C        -6.9329221299        6.6930292403       -4.6005538658
 C        -6.9211020908        7.1484465947       -6.1373636784
 C        -5.3744202239        7.4262479758       -6.5425145087
 O        -4.6344792424        7.4448972340       -5.6041408050
 C        -4.9734014224        7.5243371462       -8.0362912456
 C        -4.9138534671        6.1345308991       -8.5848168687
 O        -4.8976431194        5.0792767537       -7.9206448997
 C        -4.8689685002        5.9297412776      -10.0488571719
 C        -5.9822416296        8.4575239239       -8.8667466283
 C        -3.5463565814        8.1498652220       -8.0017896060
 C        -7.8158484855        5.8836258994       -1.3374328667
 C        -8.3787141917        4.2696180873       -3.2565475918
 C       -15.0930035805        5.8398207611        0.7669033865
 C       -14.4433414367        8.0104875525        2.1055077709
 C       -11.0234017593        3.8517966595        6.8307611444
 C        -8.8145181249        4.1674765472        5.7433322290
 C        -7.5744019948       -2.8965734379        4.8286627379
 C        -6.7894818186       -1.6889099599        2.6216090949
 C       -14.1344089788       -1.0433554393        0.9964161541
 C       -12.9258316863       -0.9997434969       -1.3420395651
 H       -12.7546168320        1.6886773163       -2.1456475174
 H       -13.8731277804        2.8013386517       -1.4405145287
 H       -14.3763029746        1.2232048016       -2.0495108468
 H       -10.8737599202       -2.0408148394        0.0811800364
 H       -11.5762453612       -2.4425863435        1.7854479669
 H        -9.3571245033       -0.5535011715        1.6457923528
 H        -8.9226368116       -2.2193641360        1.0119916469
 H        -9.3289279536       -0.9271546247        6.1599766866
 H       -10.6690803076       -0.5101168752        5.2206742555
 H        -8.2753285242        1.4771212301        5.8171613699
 H        -9.7930045835        1.2156332543        6.8791783041
 H       -11.5875316964        6.4810310814        5.2579380253
 H       -12.7433921928        5.1443191328        4.8789542571
 H       -10.9852855042        6.0576811943        2.6473406971
 H       -12.1636041793        7.3284072679        3.0084164640
 H       -12.8266656939        6.3663829396       -1.9058869917
 H       -12.5670684297        5.0716796529       -0.8279421755
 H       -10.4174014981        6.4501391456       -0.1461499959
 H       -10.9024610180        7.5361330435       -1.4520061431
 H        -6.3189448524        5.8009284860       -4.3057821135
 H        -6.4312231467        7.5597755849       -4.0515872621
 H        -7.4122875863        8.1222418163       -6.1388385870
 H        -7.3276852627        6.4275780662       -6.9357657524
 H        -4.1053576469        6.6355996372      -10.3598312051
 H        -5.7664588969        6.0768406223      -10.5363241153
 H        -4.5558198924        4.8784575914      -10.2113082759
 H        -5.7596909696        8.5150010917       -9.9000494188
 H        -5.8936325361        9.4821032783       -8.4068346199
 H        -7.0061898639        8.1045646694       -8.6745046131
 H        -3.1587420492        8.2386480487       -9.0145402621
 H        -2.9212134412        7.4422235642       -7.5348956503
 H        -3.4671042074        9.1045406515       -7.3505896136
 H        -6.8376002144        5.3407559642       -1.5219841029
 H        -8.2159303793        5.3372336086       -0.4195368905
 H        -7.5314829627        6.9545851637       -1.2038086281
 H        -7.3301543929        4.4057391439       -3.5063028900
 H        -9.1299396885        3.9327400765       -4.0571514667
 H        -8.5202951696        3.4763827996       -2.5572363601
 H       -15.9896141247        6.4005735956        0.4833378006
 H       -15.4841798262        5.1506844265        1.5240042058
 H       -14.8379627688        5.2741433912       -0.1204516676
 H       -14.8894878062        8.8221677799        1.4715224997
 H       -13.5870664155        8.5128013369        2.4242831800
 H       -15.1527959550        7.7800230366        2.8828904588
 H       -11.2307648079        4.8999261257        6.8665626783
 H       -10.4908861011        3.5359536501        7.6954448009
 H       -12.0182791859        3.3895945467        6.8561830266
 H        -8.1323434258        3.4155312586        6.1940526277
 H        -8.8698385999        4.9916560847        6.4069652595
 H        -8.3607458085        4.4963923160        4.8015894550
 H        -7.7129245689       -3.9253940305        4.6281313323
 H        -8.0335518795       -2.6918560876        5.7284285981
 H        -6.5603287453       -2.7967900450        5.1413786701
 H        -7.0903670526       -0.9384113471        1.8783705143
 H        -6.5012991790       -2.6055522357        2.1254793521
 H        -5.9096905048       -1.3635712537        3.1835654555
 H       -13.8417646504       -2.0026536887        1.4509441050
 H       -15.0530387151       -1.2232123430        0.3774308502
 H       -14.4122232420       -0.3291447398        1.7243446007
 H       -12.7674378421       -2.0321872997       -1.1717903489
 H       -12.2716425515       -0.4918363149       -2.0663727058
 H       -13.8966056365       -0.8452576671       -1.8652940950
 Na      -12.3392471020        2.4810687949        2.4478363995
