117

 C       -13.3341799521        1.7199734543       -1.1906978361
 C       -13.7711481259        1.2710779958        0.1799454139
 O       -13.9124749556        1.8721357806        1.2297207905
 C       -13.5359637957       -0.3477108566        0.3136820982
 C       -12.2147572579       -0.3832010691        1.0247331728
 O       -11.6623609397        0.6365414213        1.4735967626
 C       -11.2765637328       -1.5922314799        0.9115764849
 C        -9.7930465186       -1.1650662801        1.5976227707
 C        -9.6352597391       -1.8744679052        2.9518240636
 O       -10.5361969258       -2.6767294654        3.1431625691
 C        -8.4227149735       -1.7922089359        3.9339329479
 C        -8.4158998783       -0.3522572463        4.5396265471
 O        -7.8853596086        0.5874192322        3.9666839952
 C        -8.9564141784       -0.1223109611        6.0188400190
 C        -9.5540067342        1.3615859254        6.1698136194
 C       -10.1420407790        2.2571882437        5.0148668965
 O       -10.6028358170        1.8029847339        3.9884352076
 C       -10.2906724020        3.8617124361        5.3902765529
 C       -10.7864639534        4.7852477632        4.2518318156
 O       -10.3344951522        4.6907411764        3.0684960607
 C       -11.7883335619        5.9158706535        4.6485955177
 C       -12.4150395901        6.8250909783        3.5290676702
 C       -12.9839294174        5.9899506914        2.3544919570
 O       -12.9961774788        4.7641718300        2.3865331960
 C       -13.8629117338        6.6195863802        1.2228592910
 C       -12.7275498887        6.8698746269       -0.0030165004
 O       -12.4658105536        8.0078557687       -0.3082010982
 C       -11.6831578145        5.7551475934       -0.5355197499
 C       -10.5250115961        6.3492990536       -1.3520372197
 C       -10.1008790995        5.5947731258       -2.6516038473
 O       -10.7414203602        4.6676746447       -3.1168421087
 C        -8.4396278133        5.7069906962       -2.9113938580
 C        -8.3868142723        6.2144262870       -4.4715662684
 O        -9.2050562617        6.9872032553       -5.0064464687
 C        -7.2061561093        5.7114746753       -5.3644040293
 C        -6.8592414977        6.9806587811       -6.2474056681
 C        -5.3084839886        7.2090505540       -6.4441690226
 O        -4.7266741547        7.6481163882       -5.4753394414
 C        -4.6214033401        7.0558098304       -7.8659235373
 C        -5.3133481196        5.6437001561       -8.4528167676
 O        -5.6293515189        4.8191293658       -7.6728921501
 C        -5.3066890948        5.1972569869       -9.9980279066
 C        -5.2239681508        8.2196865924       -8.7062615441
 C        -3.1275375303        6.9417255714       -7.6533110650
 C        -7.7872955262        6.6569747075       -1.9919313945
 C        -7.9320345590        4.3215743071       -2.8008143524
 C       -14.8682911971        5.5918116218        0.5311033945
 C       -14.3819022041        7.9657210220        1.4885837547
 C       -11.2429609945        3.7941770782        6.6054333032
 C        -8.8096799138        4.2416526850        5.8293686808
 C        -8.3075650907       -2.8994888590        5.0353823460
 C        -7.0436570141       -1.7851557701        3.1336775519
 C       -14.7054097058       -0.7792246844        1.1824071195
 C       -13.6101265264       -1.1061245165       -1.1903622890
 H       -12.3271867494        1.2940426992       -1.2848134793
 H       -13.1415132217        2.7676686666       -1.4411577147
 H       -13.9145845129        1.1961579365       -1.8326111367
 H       -11.0272333019       -1.6465595278       -0.0811351149
 H       -11.5472013264       -2.4142621691        1.5579478622
 H        -9.6911476155       -0.1982266922        1.7086341275
 H        -9.1993829772       -1.6441069083        0.8274774515
 H        -8.3987089540       -0.2706165043        6.9105402863
 H        -9.8456989536       -0.6689181693        6.0396856680
 H        -8.8961814107        2.0682369520        6.6575415396
 H       -10.4739991505        1.2197587424        6.7870942425
 H       -11.3421165991        6.5252169506        5.4298762472
 H       -12.7868332087        5.6495996511        5.2322735295
 H       -11.8701779400        7.6996716946        3.1767554432
 H       -13.3066630322        7.1299043710        3.9707512747
 H       -12.1817812978        5.0294095518       -1.0866324750
 H       -11.2693718062        5.2348555579        0.3375342724
 H        -9.6888279612        6.4440473565       -0.6654072970
 H       -10.7963343405        7.4019611973       -1.6163635269
 H        -7.4288120249        4.7376855565       -5.8390833596
 H        -6.2983870730        5.4392317349       -4.6950146571
 H        -7.1999199967        7.7679464373       -5.5700612026
 H        -7.5327809967        6.8756988755       -7.1054125765
 H        -5.4931042985        6.0655799878      -10.5933388318
 H        -6.1743340682        4.4967905055      -10.2022903704
 H        -4.4369443035        4.7615295783      -10.3493727972
 H        -4.5510231226        8.4718105395       -9.5778161295
 H        -5.3386877385        9.0614634590       -8.0316082755
 H        -6.2094371277        8.0224075297       -9.1023932999
 H        -2.6092921082        6.6920979828       -8.5843864359
 H        -2.8558046131        6.0370814904       -6.9802706608
 H        -2.7843002278        7.8266069417       -7.2733800264
 H        -6.6820373704        6.5008555075       -1.8180570698
 H        -8.1260458543        6.8215243446       -0.9626286549
 H        -7.9870588071        7.6417118149       -2.5319753833
 H        -6.8081906180        4.2083404813       -2.8033108267
 H        -8.3742583758        3.8577456121       -3.6149530020
 H        -8.1777820201        3.8774266596       -1.7455026418
 H       -15.2875773964        4.8892823504        1.2443255336
 H       -14.3090930835        4.9520184282       -0.1666741257
 H       -15.6426207525        6.0582908513       -0.0595579349
 H       -15.1781249451        8.1423480907        0.8429621173
 H       -13.5439958510        8.7288779334        1.2975011664
 H       -14.7358207345        8.1210996640        2.5291691990
 H       -11.4755603492        4.8333062196        7.1010370731
 H       -10.7793468126        3.2452526630        7.3942991829
 H       -12.1186268585        3.2196737437        6.3264549032
 H        -8.7670625331        4.1734846697        6.8971126479
 H        -8.5325090980        5.2354126861        5.4937695038
 H        -8.1220456185        3.6828870869        5.2649430789
 H        -7.3560827440       -3.2831104887        5.1767717832
 H        -8.8172375574       -3.8186672382        4.7270261943
 H        -8.6303274508       -2.7016193859        5.9988503982
 H        -6.8982793488       -0.9691480784        2.4701201711
 H        -6.7278260157       -2.7487873191        2.7408424622
 H        -6.3062692459       -1.6587450136        3.8878670241
 H       -14.4661793181       -1.7853078605        1.4105869790
 H       -15.6544228267       -0.6482592052        0.7652717264
 H       -14.5372357918       -0.3172987887        2.1907514480
 H       -13.2327493475       -2.1813212814       -1.1383865381
 H       -12.9892297611       -0.7198238959       -2.0254344696
 H       -14.6723220108       -1.1595941486       -1.5300659111
 Na      -11.8272756431        2.9392894684        2.0119702931
