117

 C       -13.6165538901        2.0256015829       -1.3117541875
 C       -13.7606272681        1.5070872401        0.1128527969
 O       -14.2765263057        2.1282906907        1.0354002142
 C       -13.4273598680       -0.0897578597        0.3710749801
 C       -11.9565895846       -0.2571881661        1.0519721012
 O       -11.4040503599        0.7144970022        1.5125618479
 C       -11.1997540828       -1.5400728705        0.7866381885
 C        -9.6940973939       -1.5569203789        1.5900881554
 C        -9.8715325592       -1.8339675801        3.1003414700
 O       -10.9695237798       -2.0826750442        3.5911646869
 C        -8.6263745431       -1.6480410040        3.9617556359
 C        -8.6092844326       -0.2751080296        4.5638954820
 O        -7.8724207083        0.5509112465        4.1114988941
 C        -9.8131703758        0.1047586062        5.4248550752
 C        -9.5159804426        1.5524380962        5.9603187194
 C       -10.1678438952        2.5590264736        5.0737173082
 O       -10.5447796128        2.1691488343        3.9478549633
 C       -10.2993487859        4.0408062453        5.5146730126
 C       -10.7312797939        4.8147520202        4.1622901561
 O       -10.2393989511        4.6394454195        3.0891837679
 C       -11.8704214662        5.8476466506        4.4611192926
 C       -12.1835444844        6.6178781369        3.1742301285
 C       -13.1614259047        5.8069799258        2.3514227698
 O       -13.2189525395        4.5878091139        2.5017746392
 C       -13.7150802677        6.4985367040        1.0158623781
 C       -12.5845826342        6.8922825594        0.0870827793
 O       -12.1483572108        7.9979563443        0.1441266731
 C       -11.7202031809        5.8431590082       -0.8132556743
 C       -10.3793066006        6.4370066838       -1.4260925207
 C        -9.7703440875        5.4628485905       -2.3759946280
 O       -10.3546868945        4.4804185899       -2.6981554038
 C        -8.1828686534        5.6482443281       -3.0557490665
 C        -8.5751104671        5.9246737934       -4.5621774589
 O        -9.5896647587        6.5730890108       -4.8060749984
 C        -7.4504890553        5.8529645129       -5.5560209074
 C        -6.9692623088        7.1849463308       -6.4515544781
 C        -5.4051614190        7.0436724716       -6.4433507406
 O        -4.8135412404        7.1585180969       -5.4133567246
 C        -4.6527221039        6.6619747582       -7.8376264873
 C        -5.2113218991        5.2868880070       -8.3826113309
 O        -5.7061330650        4.5437238573       -7.5800202302
 C        -5.2544338673        5.0574306631       -9.8946802522
 C        -4.7833401636        7.7638438020       -8.8581015409
 C        -3.1768448012        6.2036652189       -7.5859361074
 C        -7.4078510339        6.8588099193       -2.6677074808
 C        -7.4267001715        4.4135726708       -2.7903234213
 C       -14.7914195606        5.6341998292        0.3987227029
 C       -14.2792311301        7.8304818345        1.5471365843
 C       -11.2839941759        4.1834408797        6.7267643464
 C        -8.9153146081        4.7608223204        5.6804670539
 C        -8.5592289251       -2.7137877652        5.0779643662
 C        -7.3719202786       -1.8317011566        3.0237624704
 C       -14.1938069096       -0.5564480108        1.6996547359
 C       -13.7690219412       -1.1019334114       -0.7431053893
 H       -12.5841541071        1.7934713439       -1.7091126729
 H       -13.5142910479        3.1690675688       -1.4124045679
 H       -14.4115145704        1.6855488875       -1.9045609935
 H       -11.0405178181       -1.3814881695       -0.2897135945
 H       -11.8647613562       -2.2770323901        1.2764276316
 H        -9.2099939827       -0.6342493563        1.3078356562
 H        -9.2320166468       -2.5285964489        1.0821731155
 H       -10.1919295217       -0.5812679004        6.2132655820
 H       -10.6822127143        0.3209500244        4.7334578354
 H        -8.4448166155        1.8768655947        6.0611706381
 H       -10.0130415099        1.7607364568        6.8875512205
 H       -11.8599916467        6.4749555587        5.3222784202
 H       -12.7945025282        5.2232071775        4.8076707129
 H       -11.2771267018        6.7132028975        2.5959282435
 H       -12.5654424898        7.5737752059        3.3259290265
 H       -12.2780920013        5.4616566496       -1.6309537866
 H       -11.5527058237        4.8760463958       -0.2466645244
 H        -9.5791651922        6.5560109557       -0.6790699290
 H       -10.6535348420        7.4380645500       -1.8381099678
 H        -7.6063673622        5.0756140806       -6.2570316769
 H        -6.5579561451        5.5141475475       -5.0421542112
 H        -7.3323579496        8.0574104131       -5.9895315059
 H        -7.4714657632        7.0495958567       -7.4534018681
 H        -5.8257662013        5.8008012682      -10.4512993486
 H        -5.7443929725        4.0091008761      -10.1114146278
 H        -4.2456937018        5.0731083410      -10.3325679362
 H        -4.6495321453        7.3426586989       -9.8467321328
 H        -4.0166152635        8.6233465370       -8.7687353919
 H        -5.8177661930        8.1046661325       -8.8691373757
 H        -2.7301450541        6.1421734438       -8.5631298305
 H        -3.2033375976        5.1489986046       -7.1191468292
 H        -2.5491525620        6.8739329921       -7.0181419919
 H        -7.2428537304        7.5019557803       -3.5167617777
 H        -6.5174816877        6.6947522444       -2.1611179580
 H        -7.9331833427        7.4404853296       -1.8820243314
 H        -6.4952060827        4.3782120953       -3.3630950256
 H        -7.9798152698        3.6266145971       -3.1320094497
 H        -7.0687356353        4.3386076898       -1.7183035175
 H       -15.3791477902        5.2841219214        1.2650234013
 H       -14.3237976231        4.7627443675       -0.0854045623
 H       -15.4563095165        6.0914799810       -0.3209620254
 H       -14.5447307618        8.5052819091        0.7785189147
 H       -13.5940474748        8.1723673941        2.3331303803
 H       -15.1588544811        7.6220001883        2.1902266587
 H       -11.3387523986        5.2541843618        7.0023845127
 H       -10.8468915415        3.7288171448        7.6129978482
 H       -12.1578994068        3.6945788906        6.5320630478
 H        -8.1694164010        4.0103188166        6.0914453695
 H        -8.9661882847        5.5679246714        6.4416422011
 H        -8.6947921417        5.1944391504        4.7485855955
 H        -8.1746066427       -2.4279059514        6.0705539010
 H        -7.8264195382       -3.5562194322        4.7883110478
 H        -9.5500073027       -3.1696138444        5.3182213515
 H        -7.3679683751       -1.1038580811        2.1712888419
 H        -7.5489190003       -2.8329060799        2.5686110176
 H        -6.3698238689       -1.7609608246        3.4024922192
 H       -13.9083298017       -1.4489677591        2.1951370248
 H       -15.2102607399       -0.5488183546        1.3505360439
 H       -14.0950237790        0.3048135663        2.4654689944
 H       -13.8237996647       -2.1384536753       -0.4509799222
 H       -13.0054835473       -1.0828753662       -1.4912042231
 H       -14.6919790615       -0.8374969420       -1.2090663447
 Na      -11.7376825691        2.8243072039        2.1128201257
