117

 C       -13.8159549703        1.7416349049       -1.4550074487
 C       -13.8091219014        1.5112428162        0.1479664305
 O       -13.9638488205        2.3708279631        0.9901185814
 C       -13.3575654954        0.0445053130        0.6691145819
 C       -11.7406323530       -0.1008186707        1.1502090108
 O       -10.8799976972        0.7093864949        1.3512326991
 C       -11.2380787714       -1.5223373520        0.8367222358
 C       -10.0023291565       -1.9577825922        1.4541467038
 C       -10.1431480909       -1.8793867703        3.0088731541
 O       -11.2167201017       -1.5757980786        3.4676279370
 C        -8.7229054695       -1.6741059280        3.8491320929
 C        -8.6965048865       -0.2552882993        4.4454877899
 O        -7.7921604532        0.4641573410        4.1721428683
 C        -9.8031287932        0.1660164058        5.3220792145
 C        -9.7154091894        1.4233857586        6.0647465368
 C       -10.1085966511        2.6251692366        5.0444038345
 O       -10.6451263767        2.2537402975        4.0712379199
 C       -10.0922518572        4.1680197638        5.5782147986
 C       -10.7462470393        5.0850796821        4.3299666288
 O       -10.4360610496        4.6421920389        3.2005915904
 C       -11.8008524820        6.1383979872        4.3567171021
 C       -12.2291365763        6.7105598745        2.9863143312
 C       -13.0644372394        5.7868565637        2.0585545869
 O       -13.4250091321        4.6700280308        2.2832148108
 C       -13.5646962937        6.6445364040        0.7285208445
 C       -12.3632023725        7.1552425798        0.0110464845
 O       -11.8095952694        8.1983768581        0.3657013364
 C       -11.7642682844        6.1695902719       -0.9308572446
 C       -10.2768239664        6.3318784133       -1.3314975657
 C        -9.5543087447        5.3261752252       -2.3264353400
 O        -9.9680296361        4.1705315825       -2.3091513066
 C        -8.3436135362        5.7410351895       -3.0142477304
 C        -8.8117656058        6.0176923862       -4.5964816170
 O        -9.9031937082        6.2340956628       -4.9009860601
 C        -7.7718023593        5.9244335139       -5.7450711057
 C        -6.9763488498        7.1758593872       -6.2844396875
 C        -5.3993416329        6.7781236670       -6.4154321504
 O        -4.6051899223        7.0028865300       -5.5008443617
 C        -4.7744705921        6.3098230814       -7.7371503482
 C        -5.2857801695        4.8498386834       -8.4928073824
 O        -5.5764796315        3.8306335387       -7.8503937675
 C        -5.2379650915        4.8499602173      -10.0542171848
 C        -4.6908508064        7.5799891708       -8.6890518419
 C        -3.3255896607        5.9884167019       -7.3452955130
 C        -7.6582649091        7.0865565780       -2.2707073393
 C        -7.3392339731        4.5499304988       -3.0096668675
 C       -14.3692786363        5.6607123042       -0.0506775220
 C       -14.6991357446        7.7341770176        1.1038705042
 C       -11.0471118231        4.4264539474        6.8623176545
 C        -8.6810357923        4.6794811172        5.9945140590
 C        -8.7259691835       -2.4987682386        5.1376624846
 C        -7.5107527091       -2.0831169852        2.9700085446
 C       -14.0246953517       -0.2509365860        2.0426950184
 C       -13.6650233449       -0.9584632320       -0.5463627789
 H       -12.8814609823        1.5150616113       -1.8232426110
 H       -13.9747302692        2.7310013988       -1.7139793799
 H       -14.7120960792        1.1916852939       -1.8805752170
 H       -10.9967136772       -1.2802844111       -0.1884106107
 H       -12.0880799590       -2.0935633432        1.1076193855
 H        -9.2830822239       -1.2470848979        0.9999449796
 H        -9.7881552194       -2.8383101110        1.0286390350
 H        -9.9027087175       -0.5614041465        6.0948250869
 H       -10.7080203428        0.1395714733        4.7940725973
 H        -8.7744082570        1.3716446316        6.6120522158
 H       -10.5274697552        1.4757759605        6.8583301816
 H       -11.5731293202        7.0058082739        5.0761767369
 H       -12.5629635070        5.7153020870        4.9254999500
 H       -11.3061371216        6.9390928341        2.4224463433
 H       -12.7373601139        7.7540898052        2.8798782540
 H       -12.4104777387        6.0161196283       -1.8329883443
 H       -11.9813140655        5.2420772360       -0.5103140766
 H        -9.6964946088        6.3305596210       -0.3942762163
 H       -10.2146600483        7.3271793134       -1.7382994558
 H        -8.2311506499        5.3530444480       -6.6457238385
 H        -6.9150327124        5.3288428004       -5.3520286684
 H        -7.1268712709        8.0094219730       -5.5179727300
 H        -7.3869383518        7.5493466231       -7.2069546261
 H        -6.1611863165        5.3031329257      -10.4685145948
 H        -5.0999486606        3.9409801530      -10.5012450835
 H        -4.4869129954        5.5646352168      -10.4423059229
 H        -4.0258236070        7.5785312389       -9.5517415294
 H        -4.3566531061        8.4120804720       -8.0805846638
 H        -5.7203429491        7.7563840751       -9.0875430101
 H        -2.7028980127        5.5933747012       -8.1677263432
 H        -3.4146080807        5.3673207576       -6.5613208789
 H        -2.7591714168        6.9047276232       -6.9730106665
 H        -7.9797292347        8.0909700537       -2.6405115332
 H        -6.5191594583        7.0258940609       -2.2366358693
 H        -7.7059568235        7.0669077044       -1.1882563759
 H        -6.3810056366        4.6171802468       -3.6079372335
 H        -7.8871646556        3.5904912081       -3.4770355375
 H        -7.1311713521        4.3286409365       -1.9792996447
 H       -15.4252163171        5.8105748646       -0.0879189378
 H       -14.0617277798        4.6666446089        0.2459748275
 H       -14.0740589747        5.7120830663       -1.0955068096
 H       -15.3633525458        7.6328178589        0.1987458923
 H       -14.2703677537        8.6803937356        1.2392037165
 H       -15.1827601717        7.5737368024        2.0400039376
 H       -10.9569512003        5.3951754155        7.1640114567
 H       -10.6591443604        3.7402773743        7.7742650308
 H       -12.1056069675        4.0763064782        6.6191579340
 H        -8.3390810096        4.0514225541        6.7602040282
 H        -8.7785081471        5.6568683696        6.3805962374
 H        -8.0419782574        4.6395929654        5.0780005615
 H        -8.2474257871       -1.9066335099        5.9031906885
 H        -8.2672879839       -3.4113025888        5.2029761539
 H        -9.7277679229       -2.5350154388        5.4951805384
 H        -7.2431704144       -1.2713626238        2.3300250630
 H        -7.5634061026       -2.9035424884        2.3522673682
 H        -6.6779314611       -2.0585570895        3.6219744299
 H       -13.6086441667       -1.2182105590        2.3372253497
 H       -15.1119224304       -0.2097063549        1.9604738168
 H       -13.7075959132        0.4213576798        2.7366031432
 H       -13.5930317536       -2.0422053030       -0.3141038647
 H       -13.2028270958       -0.7745738919       -1.5887111847
 H       -14.7930561127       -0.8023299458       -0.6236907219
 Na      -11.9605678665        2.9540479055        2.3084739476
