117

 C       -13.9550726801        1.8044678706       -1.2861086930
 C       -13.5790548080        1.4950408972        0.1407029689
 O       -13.6255749885        2.5077917273        0.8310715680
 C       -13.2611897184        0.0766159224        0.7346841755
 C       -11.7093461624       -0.0599307225        0.9032943522
 O       -11.0019236079        0.8499980076        1.2802706164
 C       -11.1673248981       -1.6714800534        0.7134282846
 C        -9.9956608722       -2.1325301220        1.5433139357
 C       -10.0266710235       -1.6070297276        2.9659573998
 O       -11.1314457719       -1.5299076749        3.4833350115
 C        -8.7663618461       -1.6577540359        3.9217714399
 C        -8.6301438691       -0.1704822782        4.4792086328
 O        -7.7515647937        0.5549358426        4.1471201339
 C        -9.8195333949        0.0972057487        5.4812986071
 C        -9.7407530114        1.5681252806        6.1183951723
 C       -10.3062234714        2.6146916974        5.1883606971
 O       -10.7316413631        2.2774120823        4.0802766381
 C       -10.1021763565        4.2303352118        5.5525049303
 C       -10.7025888746        5.1178087118        4.3145436256
 O       -10.4239307760        4.8197123556        3.1923296622
 C       -11.7961331329        6.3038265025        4.4468803116
 C       -12.1443806742        6.7944215117        3.0704600809
 C       -13.2231584366        6.0770132816        1.9745862913
 O       -13.4294815226        4.9064628340        2.1593822037
 C       -13.6367419008        6.6119364304        0.5376329386
 C       -12.2772068848        7.2445462702       -0.0067294993
 O       -11.6422988449        8.1839472156        0.3913649679
 C       -11.6591771571        6.2441622515       -1.1038126075
 C       -10.1785954539        6.4413048104       -1.2661917057
 C        -9.6117122358        5.2932114443       -2.1174566945
 O        -9.7841043553        4.1339622953       -2.0446370775
 C        -8.3828739329        5.8438429502       -3.1203923641
 C        -8.8202297557        6.0467510140       -4.5875901176
 O        -9.9833266141        6.1642686182       -4.8089388593
 C        -7.8751800272        5.7194871098       -5.8032693052
 C        -6.8650298653        6.9667575732       -6.1027239589
 C        -5.4764687382        6.6646812627       -6.3279788725
 O        -4.7183001297        6.9391428194       -5.4523806764
 C        -4.7601103619        6.0321056500       -7.6813630955
 C        -5.1984707340        4.8293340294       -8.5330210613
 O        -5.5413148105        3.8013848476       -7.9636005635
 C        -5.3276279615        4.7452548568      -10.0262661777
 C        -4.7365262542        7.3340630465       -8.5914381025
 C        -3.2837959842        5.7882790196       -7.4004703528
 C        -7.7921027240        6.9538711912       -2.3905698966
 C        -7.3211033396        4.7849322000       -3.1519793351
 C       -14.2699003756        5.4392923045       -0.3700099506
 C       -14.7205755434        7.7224834851        0.9302621893
 C       -10.9199765794        4.4920660290        6.8149042024
 C        -8.6341928088        4.5828737307        5.9974886875
 C        -9.0960834308       -2.7344771229        5.0565648205
 C        -7.6502651651       -2.1128097470        2.9771410938
 C       -13.9705992339       -0.1224634747        2.0916909645
 C       -13.7963953155       -1.0026714214       -0.2229394130
 H       -13.0598281327        1.7749013820       -1.9026900208
 H       -14.3428214382        2.8390146471       -1.3245941290
 H       -14.7855490574        1.2499361342       -1.5849353564
 H       -11.0719241343       -1.7464407843       -0.4140253292
 H       -12.0770275437       -2.0394451187        1.2126120527
 H        -9.1089965441       -1.9288343785        0.8915937189
 H       -10.0114081160       -3.3280174414        1.6020045505
 H        -9.8470296971       -0.6305953388        6.2955639876
 H       -10.7749904070       -0.0379985117        4.9296489538
 H        -8.6738353949        1.7082483420        6.4300019764
 H       -10.3012802623        1.6881147523        7.0647356054
 H       -11.5616545080        7.1355556588        5.0801017555
 H       -12.6594543579        5.9835938358        4.9529229043
 H       -11.1978712938        7.0219925245        2.3954435101
 H       -12.5550937181        7.8734464606        3.1623256627
 H       -12.2175517805        6.4463525338       -2.0852939586
 H       -11.9284265908        5.1489406191       -1.0543298922
 H        -9.7612000914        6.3565418927       -0.2702554881
 H       -10.0345900418        7.4230239705       -1.6198182492
 H        -8.5124218478        5.6565615731       -6.7374639317
 H        -7.2187362356        4.8502437841       -5.7425837298
 H        -6.9220551051        7.6952173861       -5.2935826018
 H        -7.1861895558        7.5560286038       -7.0052498186
 H        -6.2343750977        4.9448925473      -10.4361120668
 H        -4.9941304066        3.7230328117      -10.2913271376
 H        -4.6388833349        5.4033859561      -10.4990249692
 H        -3.8666324741        7.5362993620       -9.1279445289
 H        -4.7880442819        8.2585051263       -7.8922081873
 H        -5.5320133095        7.3480189609       -9.2827173442
 H        -2.7468824708        5.3958390825       -8.2039097632
 H        -3.2753433121        5.2103365439       -6.4533312002
 H        -2.7754381537        6.7446685945       -7.1350035198
 H        -8.5420337558        7.7118001795       -2.1998937957
 H        -6.9204789301        7.4884173772       -2.7159681194
 H        -7.3722814456        6.5893468524       -1.4551834540
 H        -6.3087867978        4.9784774201       -3.5419541674
 H        -7.6843790255        4.0092300270       -3.7453300956
 H        -7.3341508909        4.3702711691       -2.1348981865
 H       -15.3421670736        5.5754607708       -0.4885569752
 H       -13.9207028359        4.4213996376       -0.1642293546
 H       -13.9465079910        5.6869061282       -1.3678998949
 H       -15.4437133303        7.7748680608        0.1167311754
 H       -14.0958040577        8.5993165469        0.9995310986
 H       -15.1189226691        7.6247434965        1.9076777695
 H       -10.9335157883        5.5623861161        7.0983046080
 H       -10.5133883240        3.8955454059        7.7000467960
 H       -11.9278462091        4.0993722701        6.5933560419
 H        -8.4690730413        4.2004506616        7.0499011657
 H        -8.5259630063        5.6467974578        5.9675583502
 H        -8.0002749268        4.0440200773        5.3314845060
 H        -8.2661093648       -2.7226743458        5.7321155519
 H        -9.2247192649       -3.7811331980        4.7438066005
 H        -9.9398905469       -2.4554415583        5.6438644703
 H        -7.4705823686       -1.3695449851        2.1515985980
 H        -7.6831273330       -3.0566466961        2.4254667881
 H        -6.7664632215       -1.9568681314        3.5618458401
 H       -13.6135801887       -1.0806540186        2.3915768340
 H       -15.0577691417       -0.0431580085        1.9777526420
 H       -13.5998089729        0.6537033109        2.8451337158
 H       -13.9043552971       -1.8468003999        0.4548249505
 H       -13.1971999838       -1.2990655957       -1.1166653459
 H       -14.8498084756       -0.8531455478       -0.5160417658
 Na      -12.0868828924        2.9216418621        2.3297721153
