117

 C        -3.0595324801        5.1719925131        7.6973277515
 C        -3.8516771627        6.3789272005        7.1639067939
 O        -3.4749452260        7.3267172046        6.4966103415
 C        -5.3810572251        6.3453965058        7.4489152262
 C        -5.8429729953        5.2721757858        6.4765462881
 O        -5.7000387575        4.0724257137        6.6158791192
 C        -6.3306473388        5.7809011845        5.0430825723
 C        -6.6466760177        4.6170592945        4.1033205593
 C        -6.9022375576        5.2067062985        2.7125433584
 O        -7.9965921574        5.7052331046        2.4824514866
 C        -5.8017094532        5.0644374127        1.6684447628
 C        -6.1142506296        3.5072539414        0.9620096779
 O        -5.2966525144        2.6283253013        1.0745536181
 C        -7.5290375114        3.1891551181        0.3345689446
 C        -7.3536195154        2.0273482334       -0.6709296219
 C        -8.4997598695        0.9727111404       -0.7405897013
 O        -9.2483174865        1.1023154735       -1.7225033192
 C        -8.8642374329        0.0222946684        0.4104707968
 C        -9.7144133494        0.7485887001        1.5535612770
 O        -9.1348037654        1.3165920792        2.4706015670
 C       -11.2883403154        0.4393267303        1.6436079464
 C       -11.9555389966        1.7791230146        2.0210894634
 C       -11.7839488331        2.7134160807        0.8579182821
 O       -10.7353605578        2.6663670917        0.2098287923
 C       -12.8843911451        3.6614152692        0.4722524240
 C       -13.6885081981        3.0517053307       -0.6797891446
 O       -13.1771228450        2.4111774074       -1.6078204882
 C       -15.2530153969        3.2308677151       -0.7139873467
 C       -15.6861351828        3.5411709580       -2.1523185859
 C       -15.1236820669        4.9102956544       -2.6685572532
 O       -14.6603082767        5.6951374507       -1.8995050646
 C       -15.1961559143        5.1614611158       -4.2194790901
 C       -13.6875844191        4.7958437960       -4.6117380005
 O       -13.3580675417        3.6217093887       -4.5739671018
 C       -12.5012083169        5.8268734102       -5.0833858619
 C       -11.4478050939        4.9628281307       -5.8227084916
 C       -10.6482293680        3.9675197074       -4.9546258062
 O       -10.5745518717        4.0908798642       -3.7903558049
 C       -10.0273992725        2.7510870524       -5.6397989313
 C       -11.0224390631        1.5170535889       -5.2262234811
 O       -11.3395297535        1.2364104694       -4.0984443252
 C       -11.4758864783        0.6729872034       -6.3579229083
 C        -9.8213793528        2.8380434633       -7.1643745196
 C        -8.7408235701        2.5296438373       -5.0020953085
 C       -16.2338185268        4.2810666416       -4.8830520086
 C       -15.6056890689        6.6276395457       -4.4650536737
 C       -13.7475144459        4.1298589494        1.7282648998
 C       -12.3014145346        4.9158415212       -0.0776850376
 C        -9.5653537137       -1.2211475116       -0.1970087323
 C        -7.4816238590       -0.3568304158        1.1145358174
 C        -6.0473266952        6.0138265303        0.4975905740
 C        -4.3027048284        5.0076347972        2.0850430346
 C        -5.8503787046        5.9387171397        8.7896602859
 C        -5.9031396350        7.7238103031        7.0831207131
 H        -1.9857314373        5.2912954924        7.9051020107
 H        -3.0813130144        4.5948384511        6.7901568304
 H        -3.6922274500        4.6563573045        8.4228657095
 H        -5.5237710226        6.3704924658        4.5077859840
 H        -7.1637185949        6.4841621182        4.9665894324
 H        -7.4972112400        4.1386672887        4.4966255845
 H        -5.8083796396        4.0320037556        4.2077271945
 H        -7.8118021337        4.0776894388       -0.2672512386
 H        -8.1952700847        3.0857016751        1.1414528327
 H        -6.3359981469        1.5972293748       -0.4340826551
 H        -7.1989342754        2.4174455226       -1.6954051409
 H       -11.5309425068       -0.3631257963        2.4062991801
 H       -11.6369230772       -0.0266382307        0.6815014869
 H       -11.5025400847        2.1196650113        2.9134411363
 H       -13.0488138734        1.6285747743        2.2809878588
 H       -15.6850560595        4.0022926789       -0.0455066787
 H       -15.6265952053        2.1535388763       -0.4547596871
 H       -16.8059066755        3.4537551615       -2.2533036563
 H       -15.2924779415        2.7869639668       -2.8643367083
 H       -12.0145944794        6.3171511610       -4.2704095381
 H       -13.1024315768        6.5573930647       -5.5936182100
 H       -10.8025245914        5.5713242728       -6.4364565954
 H       -11.9379282476        4.3747712233       -6.5950816864
 H       -10.6394596138        0.4479515521       -7.0329547891
 H       -12.3004702064        1.2772384966       -6.9154188129
 H       -11.7688775433       -0.2461850406       -5.8657151901
 H        -9.6334858204        3.9160254634       -7.4659292596
 H       -10.5907290294        2.6083276696       -7.8451640873
 H        -8.8685491399        2.3459596975       -7.3401580506
 H        -8.9068271226        2.4386109278       -3.9280572985
 H        -8.0514515537        3.3056345004       -5.1396810594
 H        -8.1575159334        1.6504556706       -5.4888907453
 H       -15.9511770751        3.2607577226       -5.2255370370
 H       -16.6081917017        4.8172661217       -5.7740883911
 H       -17.0855211557        4.2096126860       -4.2005628665
 H       -15.7134356355        6.9251572075       -5.5050485877
 H       -14.9313631923        7.2512184011       -3.9567136526
 H       -16.6139300727        6.8102251623       -4.0112439584
 H       -13.1616474422        4.7302126749        2.3976287408
 H       -14.0868225345        3.3207562134        2.3760985999
 H       -14.5979226056        4.6673272194        1.3871561631
 H       -11.6204278220        5.4410424847        0.6619824484
 H       -13.1672295528        5.6021143557       -0.1499312644
 H       -11.8305008381        4.7835117657       -1.0843527586
 H       -10.0313078830       -1.9014283766        0.6035151486
 H        -8.8672487763       -1.8088091663       -0.7450729845
 H       -10.2639908700       -0.9277288929       -0.9790410752
 H        -6.9088947506        0.5638765696        1.3757023692
 H        -6.7822332925       -0.7797078483        0.3120267488
 H        -7.5128991325       -0.9417720398        1.9719336659
 H        -5.4991861874        6.9614856635        0.7359945989
 H        -7.0917115526        6.2345770918        0.5371008300
 H        -5.6706468825        5.6115944810       -0.4324797467
 H        -4.1333910009        5.6765510080        2.9284294362
 H        -3.6374595975        5.3271337285        1.3359131265
 H        -3.9905078803        4.0244311351        2.4220502785
 H        -5.6323706727        4.8865961234        8.8850439917
 H        -6.9204702245        6.0147269269        8.9914694792
 H        -5.3495019050        6.4865935765        9.5793650219
 H        -5.4184356222        8.3921230677        7.7566002715
 H        -6.9758249152        7.7837109554        7.1880283546
 H        -5.6345918925        8.1279770652        6.1427608542
 Na      -10.9230988792        2.4584050193       -2.1642686807
