117

 C       -14.1956495334        1.4190658704       -1.4981852598
 C       -13.5305099639        1.4576642047       -0.0795819780
 O       -12.9693159985        2.5036156121        0.2635697849
 C       -13.4052641272        0.1646806310        0.8323958467
 C       -11.8875530132       -0.1148429374        0.7202608149
 O       -11.1595518246        0.7554992274        1.2154113058
 C       -11.1993700859       -1.6640965189        0.6024401018
 C        -9.8669513696       -1.6205606945        1.3572209614
 C       -10.1565176202       -1.3390783772        2.9433470729
 O       -11.2631896152       -1.0293450978        3.3513153361
 C        -9.0146501908       -1.7073853492        4.0420754542
 C        -8.8572615084       -0.2330201767        4.7584442216
 O        -8.0368889920        0.5023533695        4.3493529909
 C        -9.7575675197        0.2256747171        5.9572192394
 C        -9.4941506173        1.7656596011        6.0983969009
 C       -10.4482189799        2.6399829850        5.2410310283
 O       -11.2492996926        2.0236471142        4.5482770437
 C       -10.2841622388        4.3076969499        5.2529623523
 C       -10.8565803447        5.0042698905        3.9662498116
 O       -10.2607000878        4.8050506901        2.9123445106
 C       -11.9058775577        6.2042567816        4.2324509139
 C       -12.2574247042        6.9282381755        2.9861125775
 C       -13.1093746862        6.1197899240        2.0036220274
 O       -13.3589939366        4.9818144789        2.3575391925
 C       -13.5077540160        6.6001313593        0.6235022753
 C       -11.9693604618        7.0530706120       -0.0835448714
 O       -11.5890656613        8.1441049904        0.2158014469
 C       -11.3827300766        6.4503700551       -1.3241650427
 C        -9.9433152639        6.7022063955       -1.4110699222
 C        -9.2465076479        5.4696310348       -2.2072589005
 O        -9.2878172760        4.4066451257       -1.7091731506
 C        -7.9916264148        5.8145881018       -3.1874582554
 C        -8.8367095474        5.8281194504       -4.5042050248
 O        -9.9383745132        6.2025524492       -4.4779900012
 C        -8.0999823111        5.4365397504       -5.8529170974
 C        -7.0118832569        6.4681733883       -6.3832056058
 C        -5.5795147999        6.0785718196       -6.1595147397
 O        -4.8759730774        6.1853629244       -5.1789668916
 C        -4.7585849381        5.8254494908       -7.6404341327
 C        -5.5536269498        4.6009649785       -8.3132471744
 O        -5.7827836844        3.6397732119       -7.5660850094
 C        -5.5079169734        4.4925375038       -9.8406170882
 C        -4.8373775255        7.1818094309       -8.3725589611
 C        -3.2212319131        5.5345529653       -7.4022849308
 C        -7.3772737424        7.1415861229       -3.1871870489
 C        -7.0996232991        4.5938647720       -3.0854635504
 C       -14.4264649509        5.4342120303        0.0528483500
 C       -14.2160145394        8.0065355296        0.6713790865
 C       -11.0415622321        4.8160951545        6.5024966922
 C        -8.8266787959        4.8731050493        5.3370414366
 C        -9.4014360743       -2.8431310348        4.9700148934
 C        -7.6217400654       -1.8909321965        3.4341379967
 C       -13.8967812809        0.3692179146        2.3871340026
 C       -14.2042281623       -0.9563606642        0.2879961883
 H       -13.4748352921        1.2021279874       -2.2730699191
 H       -14.5430766286        2.4495444684       -1.5735712633
 H       -15.1714614764        0.9289199476       -1.5600034271
 H       -11.1216596461       -2.0851229420       -0.4070088978
 H       -11.9010630677       -2.2491667282        1.1378658248
 H        -9.2007099316       -0.9048902915        1.0243190675
 H        -9.3338819155       -2.4787257576        1.1063127793
 H        -9.4480808262       -0.2386847157        6.8881279527
 H       -10.8097737116        0.0867670783        5.8838474080
 H        -8.5064945175        1.9596168107        5.6859611851
 H        -9.3246184225        1.9352375653        7.1773765437
 H       -11.4631479395        6.9986202504        5.0113813879
 H       -12.7817485463        5.9164546088        4.7480923556
 H       -11.4224791628        7.3447215931        2.4324965891
 H       -12.7510081371        7.8583333421        3.1885559718
 H       -11.8384452346        6.8838861431       -2.2043527678
 H       -11.6731493620        5.4806372060       -1.4697385181
 H        -9.4977207443        6.6817974441       -0.3665969119
 H        -9.7343154901        7.6706567747       -1.8339454088
 H        -8.8077169186        5.4437717617       -6.7472818783
 H        -7.5053676276        4.5351760344       -5.8167998170
 H        -7.2171964979        7.5193429674       -6.0699010241
 H        -7.0965801464        6.5180547671       -7.4333977205
 H        -6.0929111769        5.2117422111      -10.4251627697
 H        -5.8228738761        3.4870734231      -10.2128397504
 H        -4.4281066933        4.7235064087      -10.1367196228
 H        -4.4677020544        7.1974427390       -9.3809868487
 H        -4.1851725281        8.0009895305       -7.9024669969
 H        -5.8588523645        7.6424300646       -8.4190253179
 H        -2.7589627887        5.7121563496       -8.3576426761
 H        -2.9601603089        4.6030377529       -6.9573721082
 H        -2.7893268755        6.3594236178       -6.7420555230
 H        -7.8569013788        7.8482333581       -3.8856159590
 H        -6.3390488357        7.0033862612       -3.6111125009
 H        -7.3172169102        7.7459692755       -2.2713444922
 H        -6.5683981704        4.4788611804       -4.0952563566
 H        -7.7047896327        3.6858436187       -2.8830360972
 H        -6.3554079853        4.5778464236       -2.2872211579
 H       -14.9510391578        5.0592156091        0.9330933459
 H       -13.9044156877        4.5651789853       -0.3509338099
 H       -15.2437011981        5.7620633766       -0.5888043294
 H       -13.9385816851        8.6992116864       -0.2218367329
 H       -13.7335506778        8.5150357642        1.5025163607
 H       -15.2609208578        7.8319141391        0.9468957924
 H       -10.9005700766        5.8741036999        6.6446538006
 H       -10.7220414830        4.1732823200        7.3957584369
 H       -12.1058116329        4.7181143221        6.3070128443
 H        -8.2624981498        4.3702997997        6.1249171949
 H        -9.0332085960        5.8792711079        5.5862428254
 H        -8.3129177457        4.6864703338        4.4052649785
 H        -8.5740098205       -3.1452068189        5.6684403528
 H        -9.5388035861       -3.7067715665        4.3154020582
 H       -10.3682479417       -2.8116766649        5.4947201300
 H        -7.2685453319       -1.1344579301        2.7410612245
 H        -7.7271320880       -2.6484360174        2.7266442638
 H        -6.8901256176       -2.1128098995        4.1841908027
 H       -13.6537107568       -0.5558505155        2.8539420996
 H       -14.9802154292        0.4900820498        2.3908973159
 H       -13.4338844755        1.1961978681        2.8885040336
 H       -13.9921917745       -1.9280016895        0.6823265713
 H       -14.1194014640       -0.9228862959       -0.8284661413
 H       -15.2596847573       -0.7838242371        0.5404435668
 Na      -11.7828286355        3.1090117349        2.3951442374
