117

 C       -14.3235343812        1.2051474524       -1.4618574724
 C       -13.4582940068        1.3146443746       -0.1920654185
 O       -13.0079132455        2.4351362597       -0.0690626507
 C       -13.4245910594        0.2838451938        1.0525027223
 C       -11.8055562936        0.1139520923        1.0333567671
 O       -11.1532268937        1.0392892135        1.3388751382
 C       -11.1725302501       -1.2864640656        0.6546781774
 C        -9.8731868541       -1.2955915221        1.4758028087
 C       -10.2494092770       -1.1215179065        2.9976386351
 O       -11.3591873058       -0.9038808825        3.4004272116
 C        -9.1230419711       -1.4816172410        4.1297161981
 C        -8.8358993943       -0.0061438064        4.7526131719
 O        -7.8839214884        0.6417306405        4.3241065883
 C        -9.7959269086        0.4170096866        5.8450755601
 C        -9.7560768084        1.9070788414        6.2425785385
 C       -10.5048128994        2.7649092121        5.2386895890
 O       -11.4625369487        2.3715008826        4.6105776647
 C       -10.2146479476        4.3783297369        5.1700237254
 C       -10.8384867376        5.0961457869        3.8866101466
 O       -10.7304922688        4.6213626959        2.7991338665
 C       -11.7437461389        6.2426987455        4.2230804245
 C       -12.2120434580        6.9463877105        2.9888303135
 C       -12.8803579469        6.0120371264        1.9073845176
 O       -13.1739729482        4.8642120709        2.2781812766
 C       -13.3488887073        6.6751559099        0.5350526041
 C       -11.8615683284        7.1156369357       -0.1330004024
 O       -11.3036003042        8.0975825418        0.3144849806
 C       -11.1865203385        6.2634327670       -1.0817691906
 C        -9.9755130767        6.8803965313       -1.8244062373
 C        -8.9606843121        5.6888675988       -2.1147699752
 O        -9.0326629986        4.5517277391       -1.5716245744
 C        -7.8125968337        5.7180700695       -3.1017092003
 C        -8.5559641760        5.6220983532       -4.5749387341
 O        -9.7228401650        6.1274846734       -4.6146904768
 C        -8.1220971193        5.0892024656       -5.9143562049
 C        -7.3123872277        6.1937021750       -6.6109982336
 C        -5.7845365082        5.8286099696       -6.3015000297
 O        -5.4489573081        5.4675480767       -5.1207646762
 C        -4.8276243481        5.7062946168       -7.5764460350
 C        -5.6422122370        4.5574836954       -8.1636061719
 O        -6.1252234312        3.7646633604       -7.3653552818
 C        -5.6490071964        4.2636971851       -9.6471316659
 C        -4.8707736826        6.9768010803       -8.3407235261
 C        -3.3078424782        5.3321962714       -7.1255212444
 C        -6.9620115301        7.0787917034       -3.0713680056
 C        -6.7263948267        4.6118285010       -3.0623405704
 C       -14.2119616716        5.7698286517       -0.4307826858
 C       -14.1995511641        7.9166848491        0.9788442339
 C       -11.0103767266        4.5170089971        6.5089343109
 C        -8.6842453729        4.7056431565        5.1955060901
 C        -9.7374388447       -2.4674745556        5.2462194547
 C        -7.8513899042       -2.0710695815        3.4671096054
 C       -14.0313964692        0.9213438108        2.3221205595
 C       -14.2431736616       -0.9792087148        0.4827129937
 H       -14.1474014915        0.2162830979       -1.8556566867
 H       -14.2262494679        1.9781370836       -2.1496687128
 H       -15.4081048401        1.3082783118       -1.1520945657
 H       -10.9211801098       -1.5062498772       -0.4265523958
 H       -11.9431138192       -2.1629974724        0.8304179933
 H        -8.9508166941       -0.6106167747        1.0887213747
 H        -9.3847463143       -2.3001402062        1.2624488465
 H        -9.3676944142       -0.1146569141        6.6997682620
 H       -10.8278246659        0.0173601119        5.8027951553
 H        -8.6817366654        2.2019838769        6.3153018223
 H       -10.0424460551        1.9889076066        7.2960523477
 H       -11.1716889372        6.9501260712        4.7045600679
 H       -12.5173975478        5.7986569699        4.9417086625
 H       -11.2710894053        7.3932263151        2.5666830928
 H       -12.7758069965        7.9371561338        3.0963434780
 H       -11.9168221576        5.8010008305       -1.7955437208
 H       -10.8500182563        5.2449689705       -0.5676498083
 H        -9.4595231356        7.4722916496       -1.1208394720
 H       -10.1089668286        7.5094334234       -2.7274312820
 H        -8.8798718553        4.9471326455       -6.6228885978
 H        -7.5309823414        4.1635396730       -5.7273857465
 H        -7.7449279267        7.1366472725       -6.2717412777
 H        -7.5315259934        6.1731674870       -7.7331916816
 H        -5.2511770612        4.9920553254      -10.3580453436
 H        -6.5633440450        3.9567523294       -9.9946941515
 H        -4.9508273589        3.4720607789       -9.7257400594
 H        -4.7373430087        6.7454756853       -9.4260232984
 H        -4.1077613836        7.6087742734       -8.1716037820
 H        -5.7123312116        7.6258628410       -8.2486074708
 H        -2.6735040992        5.2912742356       -8.0717459715
 H        -3.2254667724        4.3861892380       -6.6315201762
 H        -2.9509945458        6.0850030813       -6.4586413198
 H        -7.2338475749        7.9405275210       -3.7064952541
 H        -5.9306728744        6.8679285476       -3.3280604945
 H        -6.9948965322        7.5634637090       -2.0666999106
 H        -6.4342861901        4.3591670773       -4.0224059015
 H        -6.8778852864        3.7025868143       -2.4387193711
 H        -5.8382833638        5.0312726164       -2.6039648820
 H       -15.2587113913        5.5847940886       -0.1972832845
 H       -13.7375616812        4.7961125703       -0.3428849388
 H       -14.1856848692        6.1830069259       -1.4381441645
 H       -14.5399551364        8.4249145840        0.1285896382
 H       -13.6165372287        8.7229078864        1.4203181828
 H       -15.0119054498        7.4899919817        1.5529636854
 H       -11.3307806901        5.4792594192        6.7391141950
 H       -10.3116671151        4.0780831596        7.2326953930
 H       -11.9816147489        3.9492895356        6.4906542233
 H        -8.3129515783        4.0863135089        5.9414617809
 H        -8.5676760247        5.7570165759        5.4476557945
 H        -8.1589397915        4.3853513660        4.2812756432
 H        -9.3350381125       -2.1827896315        6.1751347991
 H        -9.6142335531       -3.5223730996        5.0484156667
 H       -10.7939130050       -2.3990661516        5.2128971192
 H        -7.4685519659       -1.4620538713        2.7129714514
 H        -7.8971080141       -3.0299830207        2.9408136848
 H        -7.0943141010       -2.1620414723        4.2641410092
 H       -14.2529645258        0.1267034251        3.0866558900
 H       -15.0259398330        1.1830278772        1.9676260537
 H       -13.5207783531        1.8145024012        2.5779228262
 H       -14.2575383439       -1.8382456917        1.2406586935
 H       -13.8604823062       -1.3487605063       -0.4774906834
 H       -15.3152199956       -0.6683156633        0.3377183661
 Na      -11.6947268607        2.8777783694        1.8083801930
