117

 C       -14.5471841237        0.8708451785       -1.4414724813
 C       -13.5874739926        1.4836141010       -0.4710828000
 O       -13.1606866875        2.6162957500       -0.4331610468
 C       -13.3444435335        0.3647753305        0.9196606889
 C       -11.7704321131        0.1921582243        1.1871968992
 O       -11.1006534054        1.2017418485        1.5134970536
 C       -11.1320557461       -1.1277522600        0.6947108386
 C        -9.9783461378       -1.4572153965        1.6931678991
 C       -10.3041035534       -1.1957241146        3.1239924772
 O       -11.4692756118       -0.8761941079        3.4363795424
 C        -9.1888148719       -1.4062203005        4.2124645867
 C        -8.8516477766        0.0583712523        4.5776202364
 O        -7.8459659257        0.6942027053        4.2392320392
 C        -9.8540553933        0.4921061470        5.7720305186
 C       -10.0785323674        1.9653033872        6.1468530621
 C       -10.7562537149        2.8945592054        5.0865156541
 O       -11.2884953127        2.3787588101        4.0873416120
 C       -10.3570260809        4.4749156630        5.3244205815
 C       -10.8390741529        5.0864149401        4.0346100119
 O       -10.4883964604        4.5477251029        2.9570727062
 C       -11.6791247471        6.2780885919        4.2804403768
 C       -12.2095857376        6.8381531894        2.8983598095
 C       -12.8089539115        6.0335679170        1.7741697538
 O       -13.1815004341        4.8947262682        1.8431048229
 C       -13.1382634441        6.8126800120        0.4388224281
 C       -11.7470624437        7.2164054370       -0.0055526637
 O       -11.1512279105        8.2131018257        0.3383784847
 C       -10.9760203758        6.1283706682       -0.8383600509
 C       -10.0704577520        6.6793754987       -1.8865705140
 C        -8.8684914650        5.5816716100       -1.8863324343
 O        -8.8565106966        4.6451426925       -1.1678344658
 C        -7.8874050040        5.6353629368       -2.9665490593
 C        -8.6637193688        5.6092788531       -4.3652015938
 O        -9.6039915675        6.2765812649       -4.6198351479
 C        -8.1138074782        4.8279333158       -5.6267265452
 C        -7.4026427503        5.9412952423       -6.6389773679
 C        -5.8629776160        5.7485292794       -6.2578071674
 O        -5.4677715639        5.5947720921       -5.1940612615
 C        -4.9435191510        5.4889033680       -7.5861121540
 C        -5.5997707700        4.2554028608       -8.2715534546
 O        -6.1634091790        3.3929438899       -7.6262360839
 C        -5.5490422592        3.9928089417       -9.7703374761
 C        -4.7661344243        6.7659350478       -8.5237098785
 C        -3.5753327485        5.0900021023       -7.0361127431
 C        -7.1153943015        6.9786604084       -3.0561498245
 C        -6.8120421811        4.3902666904       -2.8568091489
 C       -13.7670621557        5.9062124946       -0.5932411563
 C       -14.0573683644        8.1007650752        0.7469235107
 C       -10.6670909476        5.0115612405        6.7108003872
 C        -8.8542771575        4.4862785731        5.2076332399
 C        -9.8969160226       -2.2292049327        5.3874579932
 C        -7.8774650411       -2.1692538669        3.7321019051
 C       -14.0020496544        1.1853395018        2.0308537982
 C       -14.1252743146       -1.0364384580        0.9577844339
 H       -14.9788873007       -0.1543623705       -1.2126688663
 H       -13.9753940151        0.9684015533       -2.4500123650
 H       -15.2334774070        1.6484465244       -1.6385147152
 H       -10.8695174826       -1.1328999571       -0.3404536948
 H       -11.9291644854       -1.7904296483        0.7353564198
 H        -9.1468135426       -0.9900195590        1.4382825541
 H        -9.6336126917       -2.4840853968        1.6596612577
 H        -9.6111851035       -0.1291009378        6.6941737072
 H       -10.8711145924        0.1443686207        5.4798734940
 H        -9.1011317763        2.3246831946        6.4681693372
 H       -10.6206554970        2.0852598875        7.0936534168
 H       -10.9403470206        7.0934700733        4.7286530345
 H       -12.4829944272        5.9685562079        4.9340043670
 H       -11.4950497357        7.4984556576        2.4845273445
 H       -12.9749752707        7.5170504611        3.0195921055
 H       -11.3526681062        5.1900158826       -1.1988038476
 H       -10.2299714028        5.7735839868       -0.1333504928
 H        -9.7796267161        7.7614965787       -1.6583389095
 H       -10.4119293231        6.6336696718       -2.9111559494
 H        -9.0433150352        4.4102254632       -6.1133279783
 H        -7.3998051020        4.0520558225       -5.5415904023
 H        -7.6243670518        6.9901706292       -6.3272597925
 H        -7.6231547444        5.8604105305       -7.6844287168
 H        -4.5919233861        4.2367758935      -10.2152374065
 H        -6.2865526480        4.6908517178      -10.3614631712
 H        -5.7038047667        2.9022704325      -10.0035089658
 H        -4.1097934975        6.7184117814       -9.3383280308
 H        -4.5255968239        7.7510904605       -7.9598379031
 H        -5.7130323808        7.1120566915       -8.9178372513
 H        -2.9690212015        4.7770920145       -7.8123100441
 H        -3.6096390273        4.1699163380       -6.3229103643
 H        -3.2161008481        5.9780154257       -6.4942953280
 H        -7.7278550313        7.8190969640       -2.8933451960
 H        -6.6937649675        7.0483535830       -4.0239794687
 H        -6.3749519865        7.0743461954       -2.3070538084
 H        -7.2684928129        3.4447564126       -3.1674001531
 H        -6.6439910589        4.2989549073       -1.8438490822
 H        -5.8032827042        4.5551108569       -3.3401437655
 H       -14.8211805504        5.8171022750       -0.3249950428
 H       -13.4163957153        4.8617535160       -0.6484580591
 H       -13.6648294309        6.4712137654       -1.5174668205
 H       -14.8238748431        8.2875467241       -0.0313012929
 H       -13.4173512244        8.9824847465        0.6075014582
 H       -14.6611736134        7.9557488877        1.6354620434
 H       -10.2415145635        6.1381203988        6.8474542145
 H       -10.1014773312        4.4184471072        7.3323392608
 H       -11.6765884030        4.9702326333        7.0387912585
 H        -8.3583603827        4.1471817384        6.2052360592
 H        -8.5289172683        5.4828884774        4.8496803277
 H        -8.6262816339        3.7159613289        4.4854442142
 H        -9.1401773900       -2.2806004126        6.2165843705
 H       -10.3278627396       -3.2149152876        5.0128219561
 H       -10.8137376575       -1.6733377133        5.7694636776
 H        -7.3446810159       -1.4870740281        2.9538277230
 H        -7.9170860813       -3.1796494035        3.2146676227
 H        -7.1666225214       -2.3194753107        4.5745019897
 H       -14.0027287636        0.5388649155        2.8610057252
 H       -15.0488181865        1.5170394259        1.8816584237
 H       -13.2898371346        2.0747520744        2.1603129335
 H       -13.7774137025       -1.4886209881        1.8307814398
 H       -14.0139544255       -1.7244436226        0.1464466688
 H       -15.1532882953       -0.8533318096        1.0258326530
 Na      -11.8363354647        3.2076273001        1.6788415494
