117

 C       -14.4704284641        0.7029211878       -1.3723285439
 C       -13.5148246819        1.2174790875       -0.2393788694
 O       -13.0570333189        2.3132564439       -0.5471556347
 C       -13.3411093117        0.4161347611        1.0175386901
 C       -11.8791993420        0.2738555306        1.1067327183
 O       -11.1763199924        1.2828295177        1.3009091967
 C       -11.0959351425       -1.0544579019        0.7220183523
 C        -9.9964684899       -1.2185045942        1.7839134346
 C       -10.4587332281       -1.3653838060        3.2140249828
 O       -11.6135925612       -1.0807764858        3.5846592683
 C        -9.3568354695       -1.6436555347        4.3003548299
 C        -9.4013865720       -0.1370736246        4.9466021111
 O        -8.5836689678        0.7071310792        4.6044237262
 C       -10.4795933810        0.3813984956        5.9249851403
 C       -10.2127451901        1.9789250945        6.1945369268
 C       -10.5507735391        2.9795147284        5.0592992081
 O       -11.1107077672        2.5689773074        4.0447696570
 C       -10.0032906333        4.4936121967        5.1432385793
 C       -10.7057308272        5.4109709956        3.8816644763
 O       -10.2841718594        5.4206108097        2.6898558045
 C       -11.9741979504        6.1041102373        4.1191071368
 C       -12.3961330186        7.2362505730        3.0371135417
 C       -13.2202994106        6.5467796265        1.8198645439
 O       -13.5345476625        5.3885441182        1.9579799949
 C       -13.3009132739        7.2397743135        0.4224398509
 C       -11.6829582681        7.3264286434       -0.0346082699
 O       -11.2865447548        8.4629163842       -0.0368917383
 C       -10.7946057044        6.1013537782       -0.1620086811
 C        -9.6433456560        6.3790431329       -1.2081467450
 C        -8.6429107473        5.3031667395       -1.5819672205
 O        -8.3527928489        4.4175750424       -0.8555428827
 C        -7.8358294539        5.4601151184       -3.0218129795
 C        -8.6462948298        5.5686294433       -4.2526203990
 O        -9.5733788195        6.2854995307       -4.3287156770
 C        -8.3942655340        4.7171454444       -5.5925985726
 C        -7.4041414866        5.1717969420       -6.6795588405
 C        -5.8064824655        5.4486262085       -6.4587990114
 O        -5.2626776433        6.2373511608       -5.7330755656
 C        -4.9937306116        4.9574711574       -7.6331041255
 C        -5.5275301203        3.7791447695       -8.5750032415
 O        -5.9188105285        2.7634950149       -8.0305957109
 C        -5.0914599069        3.7565928819      -10.0422415724
 C        -5.0427427348        6.2956017180       -8.5123789579
 C        -3.5779336496        4.6296914192       -7.2136366079
 C        -7.0790775656        6.8483700669       -2.8718147796
 C        -6.7153777623        4.2992781581       -2.9284772156
 C       -14.0982779614        6.3206606642       -0.6398829595
 C       -14.0068900765        8.6184808826        0.3826430933
 C       -10.4554363479        5.1364770801        6.5243352746
 C        -8.4794133662        4.6898999030        4.9638945318
 C        -9.7862973394       -2.7048390640        5.3312288054
 C        -7.9264689307       -1.9389019357        3.8839125336
 C       -13.9393510318        1.2942241869        2.2445587451
 C       -14.1539827879       -0.8393971410        0.9974598828
 H       -15.3954688367        1.0341249995       -0.9077469752
 H       -14.3424271317       -0.3809916686       -1.5748741829
 H       -14.3618821589        1.1104039555       -2.3492371256
 H       -10.8470577369       -0.8753649577       -0.4052975194
 H       -11.7163531952       -1.9710824597        0.6805696078
 H        -9.1226440872       -0.5758293420        1.6461679718
 H        -9.4750954091       -2.2571147602        1.6601285030
 H       -10.4606012659       -0.2024678780        6.8748749806
 H       -11.4908969353        0.3647583597        5.5304857111
 H        -9.2167575913        2.1223302503        6.5751728653
 H       -10.8588812935        2.3330995587        7.0522229733
 H       -12.2207598131        6.5098400588        5.1975866235
 H       -12.6584252154        5.3702099641        3.7333785855
 H       -11.5605558155        7.7636451257        2.5496483515
 H       -12.9956560893        8.0750627577        3.4870167466
 H       -11.3809871790        5.1646826256       -0.4561473143
 H       -10.3323702323        6.1349485410        0.8758783600
 H        -9.1480652864        7.3335558613       -1.0675583979
 H       -10.0962187050        6.5358567433       -2.1834111166
 H        -9.3911089075        4.8847974741       -5.9946958172
 H        -8.4080396705        3.6745039164       -5.4390901222
 H        -7.7740254281        6.1923077216       -7.0248441466
 H        -7.3851113668        4.5260981056       -7.5185664204
 H        -5.0778673116        2.7725675706      -10.3148537021
 H        -4.1004588533        4.1955920042      -10.1875670023
 H        -5.7777419312        4.1821502695      -10.7508866009
 H        -4.5118905367        6.3555613332       -9.3942023858
 H        -4.7046306796        7.2030596876       -7.9414393131
 H        -6.0469519858        6.5483565428       -8.8138809885
 H        -2.9826150491        4.4775375495       -8.0678085218
 H        -3.5854593973        3.6406095917       -6.6986732672
 H        -3.2595991330        5.4534575473       -6.5668234686
 H        -7.7974592676        7.7139140716       -2.8822255906
 H        -6.4592882970        7.0164006726       -3.8197899196
 H        -6.4578845829        6.9761475369       -1.9725947665
 H        -7.2779762873        3.4497932693       -2.5211508964
 H        -5.9382709693        4.5074250736       -2.2665469366
 H        -6.2615579615        4.0206264566       -3.8891878752
 H       -15.0736894805        6.0900443731       -0.2258299613
 H       -13.5103007649        5.4215631783       -0.8459784052
 H       -14.1932564301        6.8609468824       -1.5867209210
 H       -13.7963421281        9.2574197638       -0.5317347112
 H       -13.7943498592        9.1942879820        1.2491083224
 H       -15.0447385328        8.4084632428        0.2759738292
 H       -10.2163296572        6.2666423918        6.6119212665
 H       -10.0948459476        4.7191262380        7.4052294469
 H       -11.4633687702        4.9822037785        6.5654934350
 H        -7.8526744529        4.2514240198        5.7570073151
 H        -8.2344817339        5.7263424979        4.8757549247
 H        -8.2875209456        4.3373502308        3.9780160994
 H        -9.2615765639       -2.6413003551        6.2616604903
 H        -9.4064416017       -3.5560753762        4.8309768054
 H       -10.8400931841       -2.7129281473        5.5266120322
 H        -7.4343650593       -1.1647635363        3.2792813820
 H        -7.9224802988       -2.8820146625        3.4394320155
 H        -7.2521818788       -2.1303000681        4.6655393378
 H       -13.3405366851        1.1892656663        3.1115643892
 H       -14.9278650071        0.8367488735        2.3270447370
 H       -14.0105415042        2.3918299244        1.9101549096
 H       -14.1432879267       -1.2712080550        1.9977780191
 H       -13.6897769291       -1.6496829217        0.3332900050
 H       -15.1914720273       -0.6928747639        0.5817821732
 Na      -11.5721016105        3.5615147864        1.5865720247
