117

 C       -14.2348664654        0.9353128262       -1.5012681998
 C       -13.5284957025        1.4150958721       -0.1615809343
 O       -13.1522757715        2.6196790142        0.0015950161
 C       -13.2786364794        0.5362394712        1.2490251711
 C       -11.7768684510        0.2717748239        1.1162418082
 O       -11.0807025068        1.2862720481        1.2769639801
 C       -11.1255495305       -1.0642676234        0.8227086694
 C        -9.9733661250       -1.1511003893        1.8499796182
 C       -10.5789585731       -1.4615333741        3.2408725150
 O       -11.7561787613       -1.6141607275        3.4286018068
 C        -9.5972658243       -1.1992260446        4.4953620155
 C        -9.5523433981        0.2188833544        5.0166127975
 O        -8.4590606752        0.8037516738        5.0438808892
 C       -10.9653547681        0.7066373101        5.6170692099
 C       -10.6963664522        2.2404470861        5.9831298591
 C       -10.6384753617        3.1900904266        4.7819531303
 O       -11.0771822677        2.8242447892        3.7087741734
 C        -9.9645238372        4.7478379216        4.9007713521
 C       -10.7836410442        5.5425636469        3.8440958429
 O       -10.6614152797        5.5538258426        2.6375274628
 C       -12.1184981420        6.1783281752        4.3354664040
 C       -12.5828411257        7.0857557201        3.2305436215
 C       -13.0004894132        6.4351772378        1.8034082396
 O       -13.4587324412        5.2931140207        1.8110221370
 C       -12.9470173702        7.2964577188        0.5544250312
 C       -11.5185883893        7.4617537288       -0.2393908933
 O       -11.2268558434        8.5493038855       -0.7017197359
 C       -10.6382072950        6.2747868347       -0.4641902953
 C        -9.3881876156        6.5552460848       -1.3289187261
 C        -8.5605465914        5.2984629151       -1.6452078378
 O        -8.5500933084        4.3410284946       -0.8932775427
 C        -7.4130301833        5.4981930105       -2.7774217360
 C        -8.4372934085        5.4060940946       -4.1968553179
 O        -9.4468894126        6.0647257138       -4.1424681970
 C        -8.2503127517        4.3164745695       -5.4130405997
 C        -7.7314961851        4.7629121035       -6.7924928070
 C        -6.2285802657        5.0760610727       -6.7500612501
 O        -5.7708838055        5.6297749543       -5.7298484851
 C        -5.1525283280        4.8113616055       -7.9995681953
 C        -5.3361817952        3.4585369830       -8.6751930962
 O        -5.9753024467        2.6183028546       -8.0263101479
 C        -4.8735551862        3.1166622994      -10.1204833868
 C        -4.7960811998        5.9870994034       -8.8747390193
 C        -3.8149142555        4.6072250326       -7.1806693247
 C        -6.6966393583        6.8904844002       -2.6366911601
 C        -6.5239566749        4.3002751620       -2.6889392883
 C       -13.8954850441        6.5997624309       -0.6025401485
 C       -13.3602432674        8.7052954858        1.0196569395
 C       -10.3737374662        5.1036934967        6.3499389743
 C        -8.5072501342        4.4576835555        4.5921086559
 C       -10.0944674533       -2.2010088171        5.5552639199
 C        -8.2615322957       -1.7603993814        4.1191046258
 C       -13.7556861186        1.3403107209        2.4787288008
 C       -14.0707834683       -0.8391406454        1.1649733214
 H       -14.9750596253        1.6831766139       -1.5439098247
 H       -14.3739383651       -0.0999263592       -1.7155699518
 H       -13.5561127759        1.2604325945       -2.3229147713
 H       -10.6352265107       -1.1433248047       -0.1963264575
 H       -11.7773342987       -1.9475745413        0.8835569871
 H        -9.2205426180       -0.2831897716        1.9162468567
 H        -9.3172899061       -1.9441313688        1.3295147337
 H       -11.3572268415        0.1558808864        6.4334874172
 H       -11.6363773233        0.6579114253        4.7722454260
 H        -9.7597956832        2.3230481997        6.5386808201
 H       -11.4471775832        2.6256845825        6.6988422914
 H       -12.2158158566        6.8222960031        5.2078218060
 H       -12.7953000949        5.3365327945        4.3109941996
 H       -11.7058053174        7.7739351589        3.1554807985
 H       -13.5021477387        7.6962557276        3.6228934532
 H       -11.2957097834        5.6663022209       -1.0209324521
 H       -10.2894329733        5.8965551674        0.4777688092
 H        -8.6791591485        7.1480171829       -0.7936683073
 H        -9.5594439254        7.2021393487       -2.2120144344
 H        -9.3103128803        4.0353787043       -5.6786770298
 H        -7.9881037963        3.3523710348       -4.9418933288
 H        -8.2649044369        5.6639691265       -7.1007029376
 H        -7.8497858504        3.9581608929       -7.5301398577
 H        -5.5034810958        3.5757496569      -10.8788941100
 H        -4.8550404340        2.0186989564      -10.2823786782
 H        -3.8131284021        3.4841675470      -10.3724473646
 H        -3.8939821501        5.7890043829       -9.4644832469
 H        -4.5062542588        6.8886892750       -8.3330732575
 H        -5.5147171767        6.2814822086       -9.6733986095
 H        -3.0397826589        4.6684360244       -7.9850990168
 H        -3.6924224493        3.7448885343       -6.5688586494
 H        -3.7682157611        5.5601402496       -6.6296020024
 H        -6.5084163080        7.4616749480       -3.5174688222
 H        -5.7149271343        6.7164112506       -2.1615133083
 H        -7.1187241431        7.4651519952       -1.8801537040
 H        -6.9125406857        3.2374003965       -2.5870988366
 H        -5.8508577735        4.5134286263       -1.8336712071
 H        -5.8434457877        4.3280385239       -3.5578164175
 H       -14.9396628995        6.7547579146       -0.3809299553
 H       -13.5554137040        5.5885053087       -0.4629729501
 H       -13.6603450051        6.8475683772       -1.6389947508
 H       -12.5735098666        9.3961994279        0.5352815636
 H       -13.6322304716        8.8950868942        2.0326381969
 H       -14.2075796900        9.0126076762        0.3884188700
 H        -9.9808447218        6.1007507904        6.8393227612
 H       -10.0327194130        4.3910143682        7.1090584746
 H       -11.4611106731        5.0429006460        6.4451763302
 H        -8.1426980632        3.7510734117        5.3049022441
 H        -7.8745761110        5.3228007343        4.8539106862
 H        -8.3809597641        4.3125204505        3.4944253193
 H        -9.3983975495       -2.1982207068        6.4693145955
 H       -10.0022694688       -3.1513631963        5.0705784985
 H       -11.0810151370       -1.8352158974        5.9250860024
 H        -7.6913700884       -1.0534608206        3.4849586756
 H        -8.2145662295       -2.7806928029        3.8519088607
 H        -7.5846194290       -1.7150164468        4.9881997470
 H       -13.5358231193        0.8372408467        3.3739563765
 H       -14.7711355951        1.4132175398        2.2398026861
 H       -13.2722996068        2.2974045779        2.5202708496
 H       -13.7711024574       -1.5768491761        1.8358593520
 H       -14.1626192443       -1.2428318172        0.1743440799
 H       -15.0619686268       -0.6050940036        1.4800760858
 Na      -11.7378638539        3.5763368644        1.5448061733
