117

 C       -13.8644327568        1.4725214411       -1.5219495887
 C       -13.6193842653        1.7464236145       -0.0494686328
 O       -13.6122619560        2.8597611880        0.3796394489
 C       -13.3020601232        0.5019209756        0.9697351557
 C       -11.6711409322        0.3305668564        1.0460643776
 O       -10.9285446249        1.2555964840        0.9813873960
 C       -11.0427028817       -1.1572499542        1.1129076224
 C       -10.0086343601       -0.9808593843        2.2368246066
 C       -10.6473101479       -1.2797219265        3.6195962252
 O       -11.8539121788       -1.4545211664        3.7130755830
 C        -9.8525883772       -1.3475194290        4.9184590815
 C       -10.0083043404        0.1522865273        5.4982642725
 O        -9.1099465552        0.9003208439        5.2715677104
 C       -11.3119261490        0.9114003032        5.6159800947
 C       -10.9450023447        2.4657268248        5.9149803291
 C       -11.0135494211        3.3476782280        4.5800421152
 O       -11.6922034429        3.0229446635        3.6147220860
 C       -10.0476365134        4.6412610839        4.6599067367
 C       -10.7355327316        5.8031155369        3.8509196603
 O       -10.2584454482        5.9391189507        2.6985404490
 C       -12.0298695777        6.5129538800        4.2050460469
 C       -12.4368333169        7.4744903212        3.0872933201
 C       -12.6156609438        6.8291240470        1.6448155635
 O       -12.7400509029        5.6436594726        1.5554108092
 C       -12.7041899331        7.7606928432        0.5060354155
 C       -11.1973751082        7.7489289699       -0.3114512921
 O       -10.9114179858        8.7667432526       -0.8722714386
 C       -10.5647801052        6.3390533474       -0.5446103998
 C        -9.3454683039        6.3926966435       -1.5975999335
 C        -8.6398551380        5.1071110131       -1.9498368371
 O        -9.0793868626        4.0162061342       -1.7048165344
 C        -7.3054152352        5.3493169588       -2.8820548862
 C        -8.0382596647        5.2660700728       -4.2191651885
 O        -8.7040487823        6.1510314810       -4.7199293639
 C        -8.2227402259        3.7650053827       -4.9200916277
 C        -7.3401047039        3.6199150913       -6.2305939023
 C        -6.0526997423        4.4583171914       -6.3334891754
 O        -5.7103845937        5.3044346244       -5.6049094712
 C        -5.3935115247        4.2812144070       -7.8144696584
 C        -5.5684202821        2.8246102900       -8.4970009106
 O        -6.4226778014        2.1352567540       -8.0285503379
 C        -4.7949311970        2.4118897403       -9.7496819210
 C        -5.9758072717        5.3458729695       -8.7099520119
 C        -3.8952291309        4.6127957391       -7.5502559484
 C        -6.7095208373        6.7372909045       -2.5345236183
 C        -6.2108184400        4.2903402371       -2.5362731220
 C       -13.8168917003        7.1977169387       -0.5668857300
 C       -13.2501701782        9.2664114059        0.5593363193
 C       -10.0202768753        5.0730614705        6.1290471777
 C        -8.5209034710        4.5163923149        4.2334088793
 C       -10.2474436414       -2.4604666365        5.9363416750
 C        -8.3647218878       -1.5262752067        4.6134125420
 C       -13.6878622209        1.1061395481        2.4765319615
 C       -14.0030358072       -0.7382639573        0.8014199224
 H       -14.8593399567        1.9572156619       -1.5394465551
 H       -13.9582657625        0.4087543180       -1.7013793453
 H       -13.2822658724        1.9092054300       -2.2727592574
 H       -10.5989013546       -1.2701667862        0.0635107874
 H       -11.7258155789       -1.9867829100        1.4175437716
 H        -9.7428034476        0.1034184191        2.4255636430
 H        -9.0480398197       -1.6921315933        2.2341853098
 H       -11.7060147917        0.4057825783        6.4794676131
 H       -11.8886485461        0.8918172193        4.7434088235
 H       -10.0067833126        2.4812985733        6.4498219238
 H       -11.7345529691        2.8987415411        6.5807132119
 H       -12.0174046541        7.0573348187        5.2174034321
 H       -12.7516291753        5.7466205618        4.1545350491
 H       -11.5068084073        8.1403216212        2.8422653599
 H       -13.2458919832        8.1713364357        3.5165216214
 H       -11.3272443305        5.6873583574       -0.9238513879
 H       -10.2366567035        6.0130026049        0.4419249171
 H        -8.6463097030        7.1962385225       -1.3950716498
 H        -9.8342805329        6.5995308430       -2.5186684381
 H        -9.3501658455        3.8144512498       -5.1290840703
 H        -8.0377828206        2.9761070192       -4.1938372613
 H        -7.9632674665        3.8133362773       -7.1433440222
 H        -6.9874828054        2.6355605761       -6.1671419892
 H        -3.8858445040        1.7976878256       -9.5225698368
 H        -4.3094937602        3.2521736610      -10.3379715496
 H        -5.4448121238        1.7858867789      -10.3387219834
 H        -5.8963981291        5.3087451597       -9.8019721236
 H        -5.6286407458        6.3863408442       -8.4018166433
 H        -7.0801240916        5.3768005425       -8.5387890054
 H        -3.4491703646        4.9315228267       -8.4498043347
 H        -3.4333641029        3.8001780101       -6.9094799177
 H        -3.8693412004        5.4507407757       -6.8449029290
 H        -6.5534358258        6.6818823145       -1.5124697155
 H        -7.3584304446        7.4583248085       -2.9109301292
 H        -5.7357973221        6.9070885305       -3.0234642993
 H        -6.7115712371        3.3411503132       -2.8096387070
 H        -5.8490958040        4.1375660993       -1.5130016443
 H        -5.3512555818        4.3515118766       -3.2622874864
 H       -14.7657134853        7.5004976395       -0.1310612009
 H       -13.8475526272        6.1242883940       -0.8277400414
 H       -13.6549008535        7.8643454842       -1.4058852935
 H       -13.7751071483        9.3619675609        1.4932581499
 H       -13.6652494296        9.6632858936       -0.4085544861
 H       -12.3549054575        9.8652085700        0.7800454782
 H        -9.6578365156        5.9620258629        6.2573067500
 H        -9.3224529403        4.4137832254        6.7049489794
 H       -10.9602572410        5.1837741763        6.7411633604
 H        -7.8103434527        3.8512343098        4.8361957830
 H        -8.1815504424        5.5451673662        4.3874817141
 H        -8.5025318066        4.2095714579        3.2006322106
 H       -10.9932545865       -2.0540452162        6.6118398829
 H        -9.3111886117       -2.6884465143        6.5586478737
 H       -10.4236358230       -3.3733997008        5.3543026948
 H        -7.9717548741       -0.7736814178        3.9474501370
 H        -8.1969540031       -2.4613533232        3.9876278331
 H        -7.7821007877       -1.5400509930        5.5439467408
 H       -13.2523231954        0.4180102707        3.2077747839
 H       -14.7479848280        1.0346238801        2.5645363393
 H       -13.3735796063        2.0853387808        2.4973543993
 H       -13.6755748134       -1.4702939533        1.4944049193
 H       -13.6289769757       -1.1301085608       -0.1144170400
 H       -15.0557181528       -0.6442288649        0.7142473094
 Na      -11.4149308681        3.7580653498        1.3563499166
