117

 C       -13.9137586234        1.4492341672       -1.4288144215
 C       -13.5209407817        1.7701306534        0.0150862441
 O       -13.0920269331        2.8756491458        0.4183797785
 C       -13.3690823574        0.5956130022        0.9241605314
 C       -11.6737172875        0.4885615041        0.9101285523
 O       -11.1351012609        1.5711962217        0.8094669997
 C       -10.9679427228       -0.9141822156        1.1747796032
 C        -9.9895064442       -1.0144758267        2.4062817736
 C       -10.7736761252       -1.3333875246        3.7752766236
 O       -11.9924234031       -1.3636681011        3.8509434666
 C        -9.8953745786       -1.2426328723        4.9813013091
 C        -9.9381191401        0.2855543797        5.4168889722
 O        -8.9297260599        0.9692416427        5.3738489058
 C       -11.1281506974        1.0275025839        5.9133803157
 C       -11.1930877245        2.5462087594        5.9758499687
 C       -11.0759760334        3.4100226886        4.7212939861
 O       -11.5364278040        3.1127276105        3.6128555836
 C       -10.1737013032        4.6696384549        4.6526060283
 C       -10.6114065944        5.7506505999        3.6072005352
 O        -9.8686172207        6.0614943952        2.7345957055
 C       -11.9252165618        6.5050096413        3.9099754258
 C       -12.0193294875        7.6704998425        2.8154111819
 C       -12.4651183874        7.0491549122        1.5254895768
 O       -12.6819071417        5.8119591020        1.4741962029
 C       -12.6482175925        7.8519830734        0.2562617820
 C       -11.2600994796        7.7986449295       -0.4242974760
 O       -10.6041583809        8.7416477571       -0.7481898182
 C       -10.7414490279        6.3396486960       -0.6553484782
 C        -9.7078159599        6.4298467276       -1.7507740595
 C        -8.7551296466        5.2184191310       -1.8923163180
 O        -9.2586944157        4.1243965222       -1.6568285712
 C        -7.4458165102        5.4501584915       -2.6122269787
 C        -8.0136103753        5.3721976719       -4.1315592333
 O        -8.3734166007        6.4810429444       -4.5265233187
 C        -8.4121162224        3.9886229295       -4.8290435617
 C        -7.2783759626        3.1059379674       -5.7296505566
 C        -6.1646689208        3.9853700830       -6.4353984234
 O        -5.7135614013        4.7999916080       -5.5974642188
 C        -5.4978387590        3.9525202315       -7.8994463439
 C        -5.4666572419        2.5371753792       -8.5545140239
 O        -6.2847137132        1.6866815019       -8.2578244648
 C        -4.4771797971        2.4826882363       -9.7366184958
 C        -6.3659219163        4.8922439839       -8.7247976963
 C        -4.1215171195        4.4858309329       -7.8585928426
 C        -6.7463217046        6.8711890927       -2.3329569441
 C        -6.4778178986        4.2082721319       -2.4469040274
 C       -13.6728041469        7.1879113691       -0.7741123683
 C       -12.8713519892        9.3668803346        0.6769854505
 C       -10.1303519157        5.2761479933        6.0965048172
 C        -8.7552136475        4.0390962313        4.2277246687
 C       -10.5326469807       -2.1275031065        6.1242239281
 C        -8.4110829768       -1.6292491681        4.7871032813
 C       -13.8246063802        0.7253473766        2.3589086314
 C       -14.1182211145       -0.7623021021        0.3400360148
 H       -14.8899524925        1.6574537220       -1.8021221594
 H       -13.6256728351        0.3639490052       -1.6700804418
 H       -13.1801964540        2.0619387093       -1.9588256592
 H       -10.2750373016       -1.0480706618        0.3414338453
 H       -11.7345982278       -1.6880698212        1.2369205178
 H        -9.5478357680       -0.0966347718        2.6884245676
 H        -9.3638608056       -1.8170237932        2.1491450907
 H       -11.4054008841        0.6215059305        6.9095471871
 H       -11.7610303888        0.7706367557        5.0018020662
 H       -10.4475929900        2.8102621365        6.7378786784
 H       -12.1706154767        2.7708418397        6.3967772422
 H       -11.8456073084        7.0538408037        4.8306381779
 H       -12.8011361969        5.7683392671        3.9430885982
 H       -11.1384418418        8.2610423965        2.7715552488
 H       -12.8298918749        8.3039326157        3.0862115270
 H       -11.6212513020        5.7941486825       -1.0995125929
 H       -10.3069545766        5.7334865317        0.1747778780
 H        -9.1445828155        7.3414986498       -1.6061102733
 H       -10.3230078520        6.4304510056       -2.6894711440
 H        -9.1782491650        4.2524923445       -5.4917810129
 H        -8.7410136759        3.4278115617       -3.9646053711
 H        -8.0647720730        2.6397079485       -6.3340072089
 H        -6.6476127279        2.3985971107       -5.0888267474
 H        -4.2645754315        1.5464996820      -10.1084082584
 H        -3.5266108076        2.8824345708       -9.4902809376
 H        -4.9950885303        2.9799421978      -10.5690861908
 H        -6.1449881176        4.7857077906       -9.7790976071
 H        -6.2148302900        5.9432719453       -8.4561756656
 H        -7.4291988162        4.7411953588       -8.6683510275
 H        -3.9410044943        5.1096578377       -8.7233401433
 H        -3.3672849673        3.7536067849       -7.5908398543
 H        -4.1260090792        5.1815456563       -7.0281171386
 H        -7.3019685618        7.3036610339       -1.4055209264
 H        -6.8836073663        7.5137553308       -3.2855808513
 H        -5.7009628785        6.7041119112       -2.0683631677
 H        -6.8580827730        3.2035337741       -2.2036681641
 H        -6.0048450608        4.4852967182       -1.5148628677
 H        -5.6851838805        4.1430482499       -3.2041563054
 H       -14.7309878353        7.3288270651       -0.5672168263
 H       -13.5103621168        6.1554163221       -0.4872990218
 H       -13.3689059955        7.3863714309       -1.7973322551
 H       -13.9488164391        9.6674137405        0.7050809269
 H       -12.3256997523        9.8821403142       -0.0498841723
 H       -12.5072328832        9.6076145231        1.6660475492
 H        -9.4078096219        6.1963631134        6.1607389186
 H        -9.9027652506        4.7234259824        6.9234145769
 H       -11.0468745396        5.8268168556        6.3246702966
 H        -8.5743402460        3.2220150324        4.8685126740
 H        -7.9927786461        4.7768414862        4.3550368559
 H        -8.7796409737        3.5951992438        3.2436256254
 H       -11.5799913517       -2.2561474237        5.8995840988
 H       -10.5435638519       -1.5767830758        6.9807274316
 H        -9.8507739580       -2.9105962072        6.2808699755
 H        -7.9926204498       -0.8368189124        4.1766557259
 H        -8.2015063988       -2.4819372611        4.2698141568
 H        -8.0115188863       -1.5469914387        5.7430323295
 H       -13.4516091671       -0.1032771407        2.8763755401
 H       -14.9142686869        0.5558644371        2.3458540496
 H       -13.7021950772        1.7953036030        2.7557026376
 H       -14.2521818143       -1.4247369834        1.1938243767
 H       -13.8146304592       -1.4076687680       -0.5017085819
 H       -15.1196745759       -0.3996679537       -0.0031425424
 Na      -11.4849541139        3.8291529482        1.3636839278
