117

 C       -14.1122149909        1.7297898745       -1.6678865562
 C       -13.6369018388        1.8828326538       -0.2100944634
 O       -13.4866906464        2.9993818092        0.2388579310
 C       -13.2152417664        0.5885053179        0.7419030936
 C       -11.6400715030        0.4058003512        0.9894263352
 O       -10.9360942643        1.3765548075        1.1874999477
 C       -11.0408646863       -1.0254615208        1.2871900012
 C       -10.0664382105       -1.0147555834        2.4099429806
 C       -10.8480339580       -1.1231016455        3.6975033677
 O       -12.0260676407       -1.4147928825        3.7800154368
 C       -10.0126284854       -0.9487673597        5.0836406576
 C        -9.7694817988        0.5665191603        5.5373829679
 O        -8.7116451379        1.1244191057        5.4672506142
 C       -11.1003514154        1.1691695923        5.8304177816
 C       -11.3625415203        2.7403320521        6.1107033475
 C       -11.2247685842        3.4475025273        4.7189798005
 O       -11.6003754514        2.8662099020        3.7077665256
 C       -10.1247563622        4.6181248116        4.7870104313
 C       -10.4251253084        5.5524285935        3.5632710332
 O        -9.6876131428        5.7607658424        2.5738030467
 C       -11.5926316204        6.5785302847        3.8682745837
 C       -11.9395810312        7.5917038574        2.8538758298
 C       -12.5208327658        7.1274063252        1.4497941637
 O       -12.7660245238        5.9762140260        1.3089646503
 C       -12.7493734516        8.0516482674        0.1407140301
 C       -11.1407473569        7.8373136009       -0.4984866084
 O       -10.3810118575        8.8156346597       -0.4804266043
 C       -10.7372424192        6.4745315214       -0.9588905466
 C        -9.7855461765        6.4611786925       -2.1930900719
 C        -8.9219054347        5.1662503729       -2.1193426781
 O        -9.2220585585        4.2883828046       -1.2931824939
 C        -7.4591740170        5.2438552929       -2.8082571592
 C        -7.8302071320        5.3841608466       -4.4086407761
 O        -7.8052995452        6.4806492743       -4.8724526840
 C        -8.3046963151        4.0664975125       -5.1065652688
 C        -7.2336140564        3.1417709234       -5.5562399106
 C        -6.1407299971        3.9525497343       -6.0975886737
 O        -5.4743344365        4.6147721015       -5.3373785306
 C        -5.7512598013        3.7042272621       -7.7992468476
 C        -5.4812431907        2.2627398959       -8.4698383184
 O        -6.1531670608        1.2411052561       -8.3197850807
 C        -4.5023903023        2.2070078615       -9.6555596047
 C        -7.0225992859        4.3261189989       -8.5098305166
 C        -4.4683158946        4.5795542917       -7.9082107947
 C        -6.6914069550        6.5027887147       -2.3362433049
 C        -6.6791800607        4.0299517669       -2.1918218753
 C       -13.8051301386        7.5606539270       -0.7693961637
 C       -12.8913020431        9.6517454569        0.3063570150
 C        -9.8813245097        5.4623976753        6.0827118194
 C        -8.7634818044        3.9143887946        4.5597114308
 C       -10.7575090791       -1.6194694995        6.3143463742
 C        -8.7104567637       -1.7433647106        5.0509278238
 C       -13.9516679155        0.8386128636        2.1316861685
 C       -13.6121363047       -0.6809154038        0.0552413586
 H       -15.0643652970        1.0967126178       -1.6658730243
 H       -13.3904678859        1.0971569128       -2.0929665831
 H       -14.3154871195        2.7458104397       -2.1707414363
 H       -10.5178317861       -1.4806811148        0.4933478456
 H       -11.9602754226       -1.5347723602        1.6777610488
 H        -9.4886689528        0.0018736725        2.4211876535
 H        -9.5313037675       -2.0034082648        2.3757247866
 H       -11.5539102635        0.6330213218        6.6512377464
 H       -11.5289870661        1.0046538542        4.8605131478
 H       -10.9530499785        3.1502676626        7.0414848062
 H       -12.4334534716        2.6003788715        6.2859793454
 H       -11.3491634154        7.2007222175        4.7470402239
 H       -12.4037567986        5.9435013497        4.2085940474
 H       -11.0887480323        8.2929975145        2.7749845489
 H       -12.7277247887        8.2502233382        3.2742264201
 H       -11.5760999858        5.8088103170       -1.0331944530
 H       -10.1234011168        6.0545818698       -0.1560864495
 H        -9.0894480411        7.3387513252       -2.2277469428
 H       -10.3716617392        6.2887884425       -3.0875742419
 H        -8.9183651358        4.4493971871       -5.9750869570
 H        -8.8015268630        3.5283996075       -4.2748686259
 H        -7.8094744653        2.4919968446       -6.1495435890
 H        -6.8492029060        2.6581910516       -4.7097745476
 H        -5.1490782438        1.9355159585      -10.6268317722
 H        -3.8106344824        1.3376638044       -9.5521236361
 H        -4.0165770622        3.1211972211       -9.9728298321
 H        -6.7706828917        4.8435348333       -9.4679646470
 H        -7.4702410736        5.0097359080       -7.8380868517
 H        -7.8327109040        3.6837918335       -8.8527093168
 H        -3.8682498885        4.3471119026       -8.8679869873
 H        -3.8795781453        4.2466550568       -7.0820670598
 H        -4.5561549756        5.6867060330       -7.9101576066
 H        -6.6851599895        6.5026503550       -1.2931849022
 H        -7.1306654361        7.3868728394       -2.7270619525
 H        -5.6727150096        6.2735990099       -2.6896749975
 H        -7.1873362359        3.1294539546       -2.1619075019
 H        -6.4360361496        4.2358956672       -1.1089063288
 H        -5.7924368226        3.8738538491       -2.7044868134
 H       -14.7978739483        7.7693516035       -0.3594132765
 H       -13.7994719663        6.4747629434       -0.7693150591
 H       -13.6176482481        8.0443691203       -1.7261164864
 H       -13.8939290674        9.9462058850        0.1698564856
 H       -12.3173272601       10.1025426402       -0.5756819931
 H       -12.4502069068        9.9672182437        1.2854219306
 H        -9.6519843525        6.5468980680        6.0206608669
 H        -9.0375194232        4.9464881842        6.6726055727
 H       -10.6621378050        5.4665561204        6.7892040177
 H        -8.4568481028        3.2296921804        5.3733509273
 H        -7.9970463243        4.6642888695        4.2432370079
 H        -8.8847041623        3.2029192033        3.6976353125
 H       -11.5827741000       -2.1857287706        5.9140710971
 H       -11.2608843455       -0.7808423757        6.8953289762
 H        -9.9743382817       -2.0350471004        6.9800577628
 H        -8.1797564860       -1.6481461137        4.0902568693
 H        -9.0013283525       -2.8652145993        5.0856582449
 H        -8.1149450926       -1.4184535692        5.9775125347
 H       -13.9800322571       -0.1422866270        2.7642184680
 H       -14.9992948544        1.1152719886        1.9400469547
 H       -13.5458844530        1.7535693283        2.4749119721
 H       -13.4559260555       -1.5568315861        0.7577217923
 H       -13.0589395465       -0.9011133444       -0.9055319647
 H       -14.6063028368       -0.7065737891       -0.3804766872
 Na      -11.4234920761        3.8594522375        1.6367130227
