117

 C       -14.1778429729        2.0108335688       -1.6956388350
 C       -13.2923947315        2.0204727199       -0.4281988996
 O       -12.8296041507        3.1209800383       -0.1320835023
 C       -13.1007724323        0.6859660927        0.5690263877
 C       -11.7696575217        0.5514208501        1.2788843547
 O       -11.2318375490        1.6472707234        1.6160418706
 C       -10.9102850803       -0.5937911252        1.4930126510
 C       -10.1097059667       -0.8064977353        2.7806114512
 C       -11.0915430175       -0.9845516452        4.0609563229
 O       -12.2772457670       -0.8833679949        3.8229631071
 C       -10.3139343780       -1.0657328058        5.3698256448
 C       -10.2539919560        0.6251125921        5.6700930857
 O        -9.1437107736        1.0980099743        5.5507086680
 C       -11.4428253280        1.4536240730        6.0853287295
 C       -10.9606348824        2.9885135926        6.2554917895
 C       -11.0585576770        3.7637259587        4.9341920115
 O       -11.9737572123        3.4763537032        4.2056107731
 C        -9.8345403482        4.8373509757        4.6828998183
 C       -10.5320186450        5.4585443397        3.4177516294
 O       -10.1283341880        5.1859574353        2.3069317182
 C       -11.3434594930        6.7950763036        3.6080612954
 C       -11.3726544358        7.5527336108        2.3685553171
 C       -12.3024666855        7.1326268368        1.2576325399
 O       -12.7516488804        6.0387250512        1.1161592771
 C       -12.4459457318        8.2056102249        0.1432996722
 C       -11.1189649572        7.9244167992       -0.7167883959
 O       -10.2011075085        8.7016657771       -0.6034160720
 C       -10.9828289834        6.6480229864       -1.5877893022
 C        -9.6279360840        6.6627413954       -2.3251979557
 C        -8.8523060537        5.3127627647       -2.1264237332
 O        -9.2239319231        4.5215689079       -1.2390276981
 C        -7.5260897320        5.0086530978       -2.8073068516
 C        -7.6020047388        5.0733391361       -4.3601179837
 O        -7.0891982128        5.8633891988       -5.1619969262
 C        -8.4452786636        3.9482441940       -5.0047467418
 C        -7.3838512854        2.8652198847       -5.4331631655
 C        -6.0933499392        3.4431449560       -6.2926172872
 O        -4.9865146511        3.4923425969       -5.7144712812
 C        -6.1839756370        3.5303005751       -7.8132057314
 C        -5.5847038375        2.1359572355       -8.0059059941
 O        -5.7923247115        1.2137559358       -7.1887187083
 C        -4.7177532380        1.7970954376       -9.1290510443
 C        -7.4568062592        3.8108596138       -8.6125961772
 C        -5.1502896901        4.5278074523       -8.2976013901
 C        -6.4377992093        6.0773739978       -2.3970549263
 C        -6.9803581396        3.6637009325       -2.3216968810
 C       -13.7332415417        7.8636707925       -0.7028763496
 C       -12.5674772700        9.5874635131        0.7200270008
 C        -9.6635099123        5.8520930525        5.8170240775
 C        -8.2820900286        4.2473522052        4.4023603177
 C       -10.9945091056       -2.0937978678        6.3895278631
 C        -8.8559843652       -1.4369759421        5.3297534626
 C       -14.1643071737        0.5188430315        1.6990516849
 C       -13.2328151440       -0.5264780083       -0.5755839380
 H       -14.2546140679        1.0627062271       -2.1836273077
 H       -13.6004968927        2.4914918673       -2.4877824259
 H       -15.1382308825        2.6023048863       -1.3904903643
 H       -10.2101725382       -0.4695944966        0.7605742735
 H       -11.4751937242       -1.5115665918        1.3448177582
 H        -9.6080599071        0.2397352221        3.0287551091
 H        -9.5083795373       -1.6644547668        2.6009834764
 H       -11.7306628453        0.9843699862        7.0783901105
 H       -12.1606428285        1.3324692361        5.2275581770
 H        -9.9477922011        3.0358290405        6.6673721463
 H       -11.6129150243        3.4705699887        6.9868866838
 H       -10.8305397740        7.3283898374        4.3524287907
 H       -12.3579640921        6.8633076169        4.0272431092
 H       -10.4560146017        7.6155765227        1.8773920356
 H       -11.5841819819        8.5490417729        2.6074662706
 H       -11.8678239500        6.3272994523       -2.1199946329
 H       -10.9662819549        5.8911489035       -0.7720712806
 H        -9.0113540815        7.4949454394       -1.7998130400
 H        -9.7501228561        6.8345618538       -3.4312591786
 H        -8.8397752505        4.4424541089       -5.9253588952
 H        -9.2786741388        3.8583607011       -4.2619474262
 H        -7.8458121364        2.0548580520       -5.9540845308
 H        -6.9976945520        2.3677665165       -4.5375361977
 H        -4.1352632340        2.6830210267       -9.5302395282
 H        -5.3054415088        1.3941630848       -9.9451581098
 H        -4.0577443783        0.9646092506       -8.8250963991
 H        -7.5011477391        3.2949059476       -9.6229850414
 H        -7.4840950962        4.8086664148       -8.7881745422
 H        -8.3829344639        3.6183188230       -8.0832152437
 H        -5.2024049055        4.5545647905       -9.4534819099
 H        -4.2057447202        4.1644213141       -8.1637415968
 H        -5.2604582402        5.5195461179       -7.8494434630
 H        -6.1512053293        5.9732914936       -1.3114579427
 H        -6.9495531135        7.0680128993       -2.3990811962
 H        -5.5876602015        5.8961169200       -3.0731357673
 H        -7.7646432370        3.0106361905       -2.0722293552
 H        -6.3462655707        3.7762717446       -1.4087082270
 H        -6.4462711213        3.1676944314       -3.0198238459
 H       -14.5574012328        8.2966976082       -0.1095177810
 H       -13.8949800173        6.7862888149       -0.8366112931
 H       -13.7144625263        8.3938521102       -1.6714464934
 H       -12.9228552459        9.5938936428        1.6788972010
 H       -13.3162282659       10.2110636693        0.2035035174
 H       -11.5968228747        9.9915757253        0.4346072616
 H        -8.9980128047        6.7755184966        5.3500427151
 H        -9.0724889630        5.5125457906        6.6977407598
 H       -10.5825556638        6.1262724570        6.2323269894
 H        -8.0720944661        3.4497544159        5.0468381918
 H        -7.5434067749        5.0253852996        4.5138782168
 H        -8.1406877507        3.9715202986        3.3349290592
 H       -10.2532972876       -2.8626887411        6.5911532046
 H       -11.9108876901       -2.3885375964        5.9477016988
 H       -11.2379718746       -1.5506178694        7.2924932544
 H        -8.3027001571       -0.5583481261        5.0674885551
 H        -8.6260787155       -2.3498460687        4.7766493815
 H        -8.5657811009       -1.6299050984        6.3764077645
 H       -13.8743138849       -0.4350572559        2.2491772618
 H       -15.1336374348        0.2746886366        1.2062442274
 H       -14.2156431566        1.4208152061        2.3983386620
 H       -13.1341880881       -1.5647735749       -0.1195028069
 H       -12.6486636198       -0.5265864405       -1.5281727509
 H       -14.2522022195       -0.6914803411       -0.8676448094
 Na      -11.8778933868        4.0056070253        1.7165312098
