117

 C       -14.1945214285        1.8501145655       -1.6385879838
 C       -13.2177548936        1.9424354438       -0.4398027150
 O       -12.6668947357        2.9775187052       -0.2009989190
 C       -13.1582743317        0.7231148578        0.4850153557
 C       -11.6722066525        0.7688293116        1.2448225583
 O       -11.3441380447        1.8270157017        1.7192544891
 C       -10.9474333454       -0.6457379454        1.4695732697
 C       -10.0943353805       -0.6392912172        2.7677905284
 C       -11.0676148497       -0.7695064264        4.0011175510
 O       -12.2479325953       -0.8353817790        3.8434046231
 C       -10.3368000822       -0.9254483182        5.3764910249
 C       -10.2015131713        0.5882442371        5.8486326747
 O        -9.1831829033        1.1364250956        5.5030973968
 C       -11.4300803684        1.5379768755        6.2491384442
 C       -11.0327008144        3.0369031973        6.4613560701
 C       -10.9993764303        3.6765058978        5.0890917884
 O       -11.8915276703        3.5628786942        4.2599317228
 C        -9.8804353174        4.8765894150        4.7048195395
 C       -10.1671556700        5.7149566336        3.4124344900
 O       -10.0431327409        5.1111667429        2.3746085335
 C       -11.1834259665        6.8587220374        3.4809961599
 C       -11.2027254199        7.6438155745        2.2710160890
 C       -12.2304943562        7.1823093302        1.1626420614
 O       -12.8589762044        6.0860528771        1.1953106614
 C       -12.4358725764        8.2032532651        0.0339374275
 C       -11.1576424460        7.9662816530       -0.8225503788
 O       -10.2571305889        8.7353064288       -0.6941897431
 C       -10.9941531197        6.7331843539       -1.7525355717
 C        -9.4858883626        6.7005847805       -2.3346372282
 C        -8.8026307483        5.3745445602       -2.0434317537
 O        -9.3644468752        4.5841745864       -1.3393804705
 C        -7.3790854817        5.0269134516       -2.7142134857
 C        -7.6656061659        4.9773984171       -4.2653530841
 O        -7.0765221166        5.7929115732       -4.9334549751
 C        -8.5160382928        3.8230683234       -4.9843740167
 C        -7.4613656197        2.7919708081       -5.4633208809
 C        -6.2711013287        3.3025534118       -6.3165421535
 O        -5.2072753420        3.4045963257       -5.7773197397
 C        -6.1343393980        3.3600553828       -7.9298930979
 C        -5.5414832567        1.8815670762       -8.0160341882
 O        -5.7901929616        1.1960847399       -7.0460455446
 C        -4.6355460803        1.6600255382       -9.3038608119
 C        -7.5611329006        3.6529478037       -8.4773841632
 C        -5.1069353563        4.4351100542       -8.3435901594
 C        -6.2316354123        6.1362577809       -2.4302730902
 C        -6.9077115514        3.6237193141       -2.1961092041
 C       -13.8041967317        7.8181802105       -0.7008950591
 C       -12.3009832439        9.7277308779        0.5868043909
 C        -9.6430366350        5.8959207414        5.8561285385
 C        -8.6574790179        4.0904817977        4.3265643335
 C       -11.2196637377       -1.8594768889        6.4022702509
 C        -8.9606317132       -1.6829480425        5.1726128534
 C       -14.2684926916        0.5127744418        1.3910863244
 C       -13.0969746857       -0.5361248636       -0.5826708870
 H       -14.1019934448        0.9638609294       -2.2366857864
 H       -13.7611066849        2.5565329270       -2.4380497638
 H       -15.1116822353        2.1468602240       -1.2473987538
 H       -10.3488579777       -0.9495025893        0.5824284869
 H       -11.7526982710       -1.4218824722        1.6389683137
 H        -9.7482568349        0.4230958890        3.0248377610
 H        -9.3435633707       -1.4935189121        2.7305710807
 H       -11.8588018887        1.1194483966        7.1259544031
 H       -11.9940219820        1.4036914768        5.3410612112
 H       -10.1168690462        3.1679346097        7.0795493618
 H       -11.8334787677        3.6395352983        6.9257072337
 H       -11.3344251367        7.3841234934        4.3693479326
 H       -12.1148028825        6.1415318904        3.6208377029
 H       -10.1979110592        7.5600779179        1.8130008309
 H       -11.3333857718        8.7531543332        2.4497721439
 H       -11.7641205756        6.9571317625       -2.5426945604
 H       -11.4027198885        5.8425595248       -1.3624212729
 H        -8.9391869325        7.5057633450       -1.7721123678
 H        -9.4113078781        6.8388344285       -3.4223860012
 H        -8.9751929355        4.2057686818       -5.9165618750
 H        -9.4068291077        3.5169700290       -4.2531611170
 H        -8.0155458672        2.0902804536       -5.9825072867
 H        -7.0383895134        2.2351485089       -4.6584321568
 H        -3.9096020683        2.4646363071       -9.2271667342
 H        -5.1615521812        1.8317832337      -10.2978761492
 H        -4.0863008673        0.6107409080       -9.4245334729
 H        -7.7228510316        3.2355348765       -9.4759799640
 H        -7.7931585161        4.7409224716       -8.5460766700
 H        -8.2948719321        3.2250358979       -7.7945886449
 H        -5.1221170046        4.4631502441       -9.4141224839
 H        -4.0386769379        4.0963962294       -8.1692045986
 H        -5.3041143678        5.4411142926       -7.8853412034
 H        -6.3969153202        6.4872485999       -1.4110343671
 H        -6.6543734560        6.9832913130       -2.9667769400
 H        -5.2625805794        5.8218185337       -2.6484168739
 H        -7.6700576853        2.8840159791       -2.3589580618
 H        -6.6313447641        3.6847917093       -1.2148047842
 H        -6.0342271141        3.2270154573       -2.7546056223
 H       -14.7351751063        8.2544515976       -0.2969115794
 H       -13.8330581441        6.7231589447       -0.8245429780
 H       -13.6342766642        8.1902586633       -1.7204798986
 H       -13.0958249921        9.7675889336        1.3466986972
 H       -12.6613197243       10.4148481794       -0.1259322993
 H       -11.2492989105        9.9962546994        0.7073777768
 H        -9.4268964056        6.8448046391        5.5323330452
 H        -8.8936255074        5.6499899318        6.5551558851
 H       -10.6298096113        5.8325553046        6.4407124791
 H        -8.3211401578        3.3930920547        5.0980998525
 H        -7.8236862866        4.8204211157        4.1514298671
 H        -8.7487039188        3.6716129340        3.3033141314
 H       -10.4264031801       -2.6078002028        6.7210142269
 H       -12.0728789169       -2.2009019165        5.8553934135
 H       -11.6025339596       -1.3022106577        7.2945988692
 H        -8.4317812086       -0.9249729178        4.4731063544
 H        -9.0328907593       -2.7451801824        4.8961739687
 H        -8.3432116263       -1.6074098008        6.1033154125
 H       -14.1457403485       -0.4179728682        1.9263757268
 H       -15.2342098358        0.4549920911        0.7919230325
 H       -14.2467267168        1.4258407451        2.1433936651
 H       -13.0297536947       -1.4605772417       -0.0159131050
 H       -12.2939760365       -0.5826161897       -1.3501242376
 H       -14.0375122275       -0.8590316779       -1.0840002867
 Na      -11.9622950486        4.0346821349        1.9762910879
