117

 C       -14.1750214542        1.9728883227       -1.7687679319
 C       -13.0969223211        1.9317803477       -0.6685246016
 O       -12.6001070488        3.0279589512       -0.3028826488
 C       -12.9486689929        0.6570605327        0.1747153289
 C       -11.8472149580        0.6991795537        1.3178167196
 O       -11.6439143856        1.8164463578        1.8616112382
 C       -10.9209715713       -0.5549691849        1.5575867898
 C       -10.1072159110       -0.3405122022        2.8413383913
 C       -11.1277557474       -0.6042623831        3.9980684207
 O       -12.3221549995       -0.6495226856        3.7433251611
 C       -10.4650782181       -0.7109155247        5.3967609502
 C       -10.0773244995        0.7943204807        5.7435804413
 O        -8.9656067278        1.2270205652        5.5917385516
 C       -11.1601203356        1.5825847236        6.5131679802
 C       -10.9004517703        3.0412211727        6.6132639457
 C       -11.0464901578        3.7397455187        5.1310246078
 O       -12.0091133287        3.5246788735        4.4142182487
 C        -9.9167119859        4.6655861904        4.8583952880
 C       -10.1752263051        5.5915207426        3.5274214851
 O        -9.6683243319        5.1854028486        2.5006934136
 C       -11.0592927545        6.9696041977        3.5654206333
 C       -10.9732805266        7.6832849148        2.1561645895
 C       -12.1225552068        7.2956849924        1.1832664049
 O       -12.8428632362        6.3927459094        1.3387550681
 C       -12.3127078730        8.2019180621       -0.2410740511
 C       -10.9847719561        8.0952511103       -1.0486321853
 O       -10.0778067867        8.8987718122       -0.8841387830
 C       -10.7991994355        7.0233475275       -2.2069595230
 C        -9.3322069592        6.7208779046       -2.4726758367
 C        -8.7549255869        5.2747166617       -2.1968058166
 O        -9.4966919319        4.6011724902       -1.4527293445
 C        -7.2580166583        5.0444739871       -2.6250498855
 C        -7.4945527158        4.9039019786       -4.1235283367
 O        -7.2669837050        5.8190891862       -4.9052798795
 C        -8.3674395874        3.7135425906       -4.5807666388
 C        -7.6644921692        2.6000917264       -5.5944670784
 C        -6.3226468823        3.1620426276       -6.1700971740
 O        -5.4897028519        3.7173786011       -5.4295281102
 C        -6.1153503316        2.9879406041       -7.7625245279
 C        -5.4750029126        1.5379047199       -8.1861925348
 O        -5.8051311601        0.6418000936       -7.3998563207
 C        -4.7526604117        1.3390170008       -9.5749913017
 C        -7.4746428964        3.1318044787       -8.4883546859
 C        -5.3609178111        4.1815857187       -8.2469455865
 C        -6.3585578253        6.2122118823       -2.2295514398
 C        -6.9054736587        3.6242352461       -1.8882058750
 C       -13.6565552199        7.8854643720       -0.9139642861
 C       -12.5346199250        9.8343145752        0.0455351026
 C        -9.5038549539        5.5976044498        6.0412416152
 C        -8.6728023144        3.7909433424        4.6142512560
 C       -11.5635940697       -1.2702126612        6.3272785872
 C        -9.2362030668       -1.6727713888        5.4579073109
 C       -14.4075182970        0.6297768282        1.0918572502
 C       -12.8837266986       -0.6322428195       -0.5748662453
 H       -13.8228584026        1.6940484323       -2.7294616098
 H       -14.4571382400        2.9683135097       -1.8662125823
 H       -15.0112916807        1.3678049093       -1.2947698185
 H       -10.2880247128       -0.5817546821        0.6590250857
 H       -11.5410598470       -1.4962848802        1.5482048827
 H        -9.8430243648        0.6993700402        2.9936146030
 H        -9.2993977803       -0.9576019881        2.9242522298
 H       -11.2752717389        1.0705190165        7.4940814818
 H       -12.0109204909        1.3993635158        5.8447681966
 H        -9.9662403880        3.2462336541        7.1548587696
 H       -11.7030255249        3.5767782575        7.1541934764
 H       -10.8480517610        7.7155755108        4.4255449993
 H       -11.9662071893        6.4846245773        3.9017223648
 H        -9.9666843366        7.5009128151        1.6784658157
 H       -10.9925583459        8.7724192120        2.2156636238
 H       -11.3427586482        7.3680841188       -3.0589610078
 H       -11.3658117733        6.0640728966       -2.0090713131
 H        -8.7040735550        7.3041395464       -1.8504761911
 H        -9.0330210101        6.9566310719       -3.4748213618
 H        -9.2088024235        4.1361676242       -5.1789691526
 H        -8.9368762691        3.2653497975       -3.8085582329
 H        -8.5926137631        2.3774338438       -6.1603144376
 H        -7.5248136360        1.6243172746       -5.0493692946
 H        -3.6953404936        1.0140060326       -9.5616966746
 H        -4.7868314207        2.2676230006      -10.0757562647
 H        -5.3258105951        0.7160081326      -10.1786381089
 H        -7.1399639740        3.6621521700       -9.4179763177
 H        -8.1722428661        3.8071949224       -8.0577245662
 H        -8.0397686712        2.1790406994       -8.6939265009
 H        -4.9479473742        3.9984244393       -9.2814337571
 H        -4.5419087745        4.3856168623       -7.6726914404
 H        -6.0170997747        5.0196324587       -8.2382575062
 H        -6.7643463831        6.7212767532       -1.3745024480
 H        -6.2324155110        6.8380594217       -3.0865102698
 H        -5.3902670062        5.7407192070       -1.9640483405
 H        -7.1291439153        2.7088080230       -2.4822498054
 H        -7.4234293883        3.6877577338       -0.8291809839
 H        -5.8778351202        3.5122367646       -1.5730500406
 H       -14.3786842126        8.0774608085       -0.1246761996
 H       -13.6425991975        6.8280130391       -1.1595234087
 H       -13.9280108750        8.4524421751       -1.7971182737
 H       -13.5676225872       10.0227059173        0.1762820488
 H       -12.2204508383       10.4178681648       -0.8891472613
 H       -11.7754350237       10.1634905249        0.7407108565
 H        -8.7478037650        6.2989658287        5.3985437469
 H        -8.7622411955        5.0190195703        6.6314078369
 H       -10.2015120319        6.0929363196        6.6152681031
 H        -8.1098625293        3.5891768396        5.5191536620
 H        -8.0100621389        4.2184431372        3.8638516396
 H        -9.0448454942        2.8953761057        4.0972215333
 H       -11.1383315923       -1.9177131427        7.0572293795
 H       -12.3735496782       -1.6021949466        5.6311104470
 H       -12.0555157229       -0.4810482926        6.8697609219
 H        -8.3678474570       -1.3105240701        5.0091115838
 H        -9.6747724491       -2.6292929511        5.1249524467
 H        -8.9678028264       -1.9114668416        6.4876450072
 H       -14.3549379037       -0.2880714476        1.7212687234
 H       -15.1658750948        0.4978295557        0.4077527894
 H       -14.4917014638        1.3925067488        1.7856282292
 H       -12.9248378718       -1.5975600829       -0.0743834725
 H       -11.9420680421       -0.6948533184       -1.0842338577
 H       -13.6065554950       -0.6835851459       -1.3312041984
 Na      -12.2456276263        4.0055909753        2.0673585966
