117

 C       -14.0275797442        2.0184132427       -1.9041266492
 C       -13.2333805784        2.0514980828       -0.5491391846
 O       -12.6037333238        3.0614724222       -0.3481821710
 C       -13.0321249188        0.6080178520        0.1641832735
 C       -11.8405288878        0.7006573464        1.2299587050
 O       -11.8247951873        1.6902280471        1.9777529256
 C       -10.7504447738       -0.3221168498        1.4500899359
 C       -10.1022287150       -0.3199679491        2.8302253954
 C       -11.1874577864       -0.4409824149        4.0316992192
 O       -12.3263262802       -0.5401290411        3.6861678266
 C       -10.6623869692       -0.6730908109        5.5191856454
 C       -10.0100337789        0.7407377933        5.9480210621
 O        -8.8860559153        1.0756695958        5.6296707505
 C       -11.0980679392        1.6828456809        6.6066415770
 C       -10.9442222013        3.1745732184        6.5698752819
 C       -11.1350102278        3.8078086787        5.2226036248
 O       -12.0915219104        3.4424109561        4.6036948115
 C        -9.7709301497        4.6994911669        4.8358993229
 C       -10.0888571662        5.6406521483        3.5877955631
 O        -9.6697234981        5.2305277774        2.5351411511
 C       -10.8664362713        6.9277028939        3.5157578770
 C       -10.8681830154        7.6836437920        2.1792047121
 C       -12.0774332553        7.4003549196        1.1381071632
 O       -12.8136604101        6.4637361937        1.2128640307
 C       -12.2758254064        8.2265372070       -0.1647224759
 C       -10.8808981127        8.1447277486       -1.1164730065
 O        -9.9937580720        8.9061559219       -0.9299945591
 C       -10.7636536115        7.1061308521       -2.2655078689
 C        -9.2933763960        6.8842140813       -2.5717353945
 C        -8.7508606072        5.3947349803       -2.1466929906
 O        -9.4698668874        4.5880677120       -1.5960990217
 C        -7.3348583580        4.9908637335       -2.5102819704
 C        -7.4732775920        4.7940953601       -4.1524209491
 O        -7.3499637822        5.8006572862       -4.8244485421
 C        -8.3653133926        3.5753943147       -4.5260359165
 C        -7.6477447608        2.5457216305       -5.4744983445
 C        -6.4387834799        3.0662605735       -6.2323763113
 O        -5.7302784430        3.7420016092       -5.5411310102
 C        -6.0525119975        2.8945525600       -7.7366552293
 C        -5.5523136914        1.4156713672       -8.1496455468
 O        -5.8231957639        0.3671229228       -7.5672012544
 C        -4.9579761208        1.3779786589       -9.5194906411
 C        -7.4197104998        2.7206975093       -8.5637547305
 C        -5.1911994822        4.1631869854       -8.1251091732
 C        -6.4543346533        6.1898015314       -2.0547433964
 C        -6.9162217583        3.6906818070       -1.7987004163
 C       -13.4286848976        7.6404102160       -1.0798094708
 C       -12.5267974994        9.8044267414        0.0136435276
 C        -9.4628976791        5.6461224224        6.0500702530
 C        -8.5349096629        3.8167334666        4.5006904635
 C       -11.7732399041       -1.2477748453        6.4442120649
 C        -9.3574519529       -1.5345880913        5.6271926079
 C       -14.3387008151        0.6278587779        1.0372365597
 C       -12.9516548837       -0.5473797704       -0.7976163684
 H       -13.2884915854        2.0797496318       -2.6931046601
 H       -14.6514734506        3.0059324260       -1.9617063485
 H       -14.6655596532        1.1471468648       -1.8948429590
 H       -10.0544519638       -0.4127496218        0.7187869261
 H       -11.3740815798       -1.2243932526        1.3306525331
 H        -9.7066114376        0.7546237522        3.0668998949
 H        -9.3093884808       -1.0251967374        2.9132640131
 H       -11.0462562618        1.3426980788        7.7139342757
 H       -12.0707031022        1.2935167099        6.1223185019
 H        -9.8698065872        3.3388611683        6.7879111511
 H       -11.5079264871        3.6669824222        7.3446954234
 H       -10.5475767976        7.5691256654        4.2505584599
 H       -11.8200556120        6.5469569272        3.9493760265
 H       -10.0382738899        7.4800682007        1.5995430918
 H       -10.8121672978        8.7174598964        2.3734740875
 H       -11.3999473316        7.3419007507       -3.1273016147
 H       -11.2168167512        6.1338133279       -1.9742105342
 H        -8.5701465500        7.6401205975       -2.1669322878
 H        -9.0919775602        6.8766543122       -3.6491826829
 H        -9.3296779116        3.8670793073       -4.8749525149
 H        -8.7994864901        3.0272161214       -3.6334499024
 H        -8.5431454326        2.1131980942       -5.8903337161
 H        -7.3429103148        1.7133677801       -4.7677295937
 H        -4.2834544708        0.5821707526       -9.5004145267
 H        -4.4372306532        2.2363348776       -9.8035633271
 H        -5.7342492180        1.1713433886      -10.2950389697
 H        -7.4270525906        3.3311909663       -9.5030610985
 H        -8.1626895550        3.2148135047       -8.0194142642
 H        -7.7650085841        1.6967776845       -8.6457972949
 H        -4.7381186036        4.0229651772       -9.1109182762
 H        -4.4019704623        4.3268902693       -7.4221594872
 H        -5.8121530975        5.0384456638       -8.1112305961
 H        -6.8654676097        6.5640130121       -1.0414767755
 H        -6.4891721329        6.9273867899       -2.9089459391
 H        -5.4203270922        5.8727148915       -1.9310169127
 H        -6.8836710497        2.7774763230       -2.3990487390
 H        -7.3235272694        3.5407470531       -0.7958074127
 H        -5.8634901699        3.9047759236       -1.5343317442
 H       -14.2640484628        7.4737971664       -0.3986197837
 H       -13.0389911554        6.6814407130       -1.3641666398
 H       -13.7989789906        8.1773920025       -1.9299903407
 H       -13.5404949851        9.9684441271        0.2790587147
 H       -12.3407804896       10.3230604582       -0.9291439015
 H       -11.7183989644       10.1684844772        0.6539938119
 H        -8.5096691572        6.0757811473        5.8134352973
 H        -9.2971719823        5.0584797429        7.0001743837
 H       -10.2751427056        6.4954259271        6.1247933466
 H        -8.1140274525        3.5341911212        5.4154554294
 H        -7.7519684495        4.3298915469        3.9944298296
 H        -8.8154918286        2.9286977973        3.9194704857
 H       -11.2820864562       -1.5610302338        7.3751032945
 H       -12.3077501191       -1.9139763758        5.8818059076
 H       -12.4551078410       -0.4916242556        6.7632199447
 H        -8.4484439396       -1.0022488478        5.4447453249
 H        -9.5256785906       -2.4260163678        5.1796030161
 H        -9.2829258318       -1.7841525196        6.6524657863
 H       -14.2548073448       -0.0606157632        1.8344851926
 H       -15.0061836495        0.2607722615        0.3104270597
 H       -14.5770092449        1.5547001160        1.6090936488
 H       -13.2096947381       -1.5828813695       -0.5585517958
 H       -11.8760269885       -0.6917710963       -0.9274813314
 H       -13.3233720161       -0.3335738708       -1.7803782995
 Na      -12.3483990246        4.0513962733        1.9359606568
