117

 C       -13.9054171053        2.0981932054       -2.0636961705
 C       -13.0553239727        2.0842719003       -0.6855363954
 O       -12.7001871906        3.0772702200       -0.1724403407
 C       -13.0607769565        0.7014846665        0.0996172466
 C       -11.9553441658        0.8736737780        1.2709800059
 O       -11.9242979295        1.7016721130        2.1249698716
 C       -10.7042357549       -0.1537583104        1.3563056296
 C       -10.1352519732       -0.2064208281        2.7785315158
 C       -11.1151909180       -0.4661256163        3.9725642309
 O       -12.3277613736       -0.4322382914        3.8767003580
 C       -10.7289969419       -0.6481942261        5.6117271276
 C       -10.2440477988        0.7291781267        6.0148943967
 O        -9.0747669859        1.0225040461        5.8197554322
 C       -11.1486573627        1.7282838219        6.8160136620
 C       -10.7536536133        3.1825427453        6.7648727889
 C       -10.9093585244        3.8082670656        5.2939808371
 O       -11.8725622268        3.7306216790        4.5268134988
 C        -9.8187339545        4.8408393132        4.8185598263
 C       -10.1378092504        5.5411895645        3.3327491857
 O        -9.6590208593        5.1372376399        2.2883290467
 C       -10.9182204314        6.9727149455        3.4279757651
 C       -10.8524122152        7.7073992678        2.1149231753
 C       -11.9407973116        7.3778047995        1.0132873663
 O       -12.6834659195        6.3363674464        1.2770420747
 C       -12.0941106564        8.1721463986       -0.2844719640
 C       -10.7722972599        8.1789517926       -1.1312228113
 O        -9.9104911443        8.9937295141       -0.8303200427
 C       -10.6732055023        7.1013463695       -2.1495585999
 C        -9.3048308788        6.8098349893       -2.6654733508
 C        -8.9092751267        5.5000731117       -2.0925854573
 O        -9.6730687922        4.6809335394       -1.7084389377
 C        -7.3221209576        5.0256953347       -2.4197517379
 C        -7.5433795032        4.8028061261       -3.9876797585
 O        -7.4227741653        5.7032644671       -4.7639616143
 C        -8.2707418227        3.4256530561       -4.5627271296
 C        -7.5966467737        2.3091446445       -5.4019552068
 C        -6.5373102859        3.0186854632       -6.0867115795
 O        -5.7696589394        3.8140632762       -5.5909425468
 C        -6.2662765123        2.7295892270       -7.7174881496
 C        -5.5466544619        1.3094705489       -8.1251585596
 O        -5.8022428582        0.2998042420       -7.5705527337
 C        -4.9506231587        1.3248661818       -9.5932842803
 C        -7.5185511538        2.5959928236       -8.6653009880
 C        -5.2213316003        3.7750430317       -8.0300869942
 C        -6.3485775100        6.2051327588       -2.0723176273
 C        -6.8842220523        3.7676855437       -1.7258959101
 C       -13.1753986515        7.4471887505       -1.1037615262
 C       -12.4596051680        9.6503330602        0.0453263412
 C        -9.4746189551        5.8521204819        6.0377603624
 C        -8.6534636846        3.9352362474        4.4006136784
 C       -11.9099374369       -1.1310250874        6.4171239529
 C        -9.5028146948       -1.6409207129        5.6494842611
 C       -14.3333926021        0.5148446999        1.0095639570
 C       -12.8887859641       -0.4206660837       -0.9075452268
 H       -13.2587535312        2.3982935960       -2.9777179278
 H       -14.6401964750        2.9496342287       -1.9251366395
 H       -14.4038567559        1.1677901896       -2.1700458683
 H        -9.8277793089        0.0976247257        0.7045222445
 H       -10.9067002633       -1.0844899369        0.9099825285
 H        -9.5529107955        0.7342222260        3.0108792448
 H        -9.3326591311       -1.1362370832        2.8304058767
 H       -11.1026189976        1.3201747653        7.8655863104
 H       -12.2186215155        1.6969833861        6.4498127506
 H        -9.7533944999        3.5097111511        7.1311206342
 H       -11.5191258359        3.6633168918        7.3743519135
 H       -10.2951704206        7.4648135417        4.1253577958
 H       -11.8423790874        6.9514059476        3.9856125661
 H       -10.0337166587        7.3367524148        1.5640019002
 H       -10.6911886661        8.7574737456        2.2314748306
 H       -11.2591125539        7.5357110431       -3.0243960101
 H       -11.2187258988        6.2219454766       -1.9477166221
 H        -8.4775066619        7.5020256502       -2.2918264703
 H        -9.1838523319        6.7973869061       -3.7847549174
 H        -9.0968667051        3.8327934927       -5.1318816687
 H        -9.0225566372        2.9236161035       -3.8861631236
 H        -8.3909084236        1.9695985143       -6.0713200633
 H        -7.3939444206        1.5009121020       -4.7347649814
 H        -4.8821635736        0.2760393273       -9.7900548219
 H        -3.9218467224        1.7798727939       -9.8456080260
 H        -5.6996266367        1.7640751195      -10.2909669092
 H        -7.3363792542        2.8206613590       -9.6363807032
 H        -8.2577048471        3.4069706499       -8.3360801354
 H        -7.9386957617        1.6535906727       -8.4869615857
 H        -4.8546236915        3.7743341099       -8.9964414494
 H        -4.3489534876        3.6053995504       -7.2637159023
 H        -5.6141873297        4.7662125144       -7.7456097997
 H        -6.4466261342        6.2252985488       -0.9527072266
 H        -6.6426074157        7.1555290272       -2.6356959552
 H        -5.2693452627        6.0279989920       -2.3517985013
 H        -6.9653920140        2.9248679948       -2.3872160681
 H        -7.3465672439        3.5791701022       -0.8523595182
 H        -5.8216963074        3.8773157693       -1.3990968759
 H       -14.0613857136        7.3826262702       -0.4760267430
 H       -12.8416917170        6.4373710426       -1.3345707879
 H       -13.5138915426        7.9404457290       -2.0334138186
 H       -13.3478511867        9.4668800286        0.6965019834
 H       -12.6908902590       10.2837848500       -0.7383531476
 H       -11.5944854452        9.9966192319        0.5767089270
 H        -8.4750451102        6.0652094945        6.1289845175
 H        -9.8069810967        5.3384638770        6.9295992604
 H       -10.1187894415        6.8089999468        5.8948619712
 H        -8.4653579744        3.2928868994        5.2798517430
 H        -7.7129883112        4.4700300776        4.3801883426
 H        -8.8551060803        3.3639448793        3.5509886314
 H       -11.6655386723       -0.8778521615        7.4400277561
 H       -11.9496850124       -2.1702562236        6.1716908496
 H       -12.8541639302       -0.6732640219        6.2292292837
 H        -8.5745706716       -1.1684720388        5.3396444925
 H        -9.8901903500       -2.5168605462        5.1561848165
 H        -9.2865763670       -1.8984484062        6.6465875628
 H       -14.1091071743       -0.1580449672        1.8166784906
 H       -15.1281134539        0.0998954459        0.3085121753
 H       -14.5290496757        1.4211157243        1.6308977342
 H       -13.4267098122       -1.3101597851       -0.5673406805
 H       -11.9252837038       -0.9705111349       -0.9414439522
 H       -13.2651222460       -0.2132076162       -1.9786769251
 Na      -12.3737543970        4.1157468249        1.8469322541
