117

 C        -2.9415936418        5.9379355868        7.7061089005
 C        -3.8647526961        6.8782679226        6.9636481885
 O        -3.4496186639        7.6989402839        6.1939316657
 C        -5.4169461322        6.6768360537        7.2591004400
 C        -5.8749339374        5.4953024155        6.4336201259
 O        -5.8696044350        4.3866553085        6.8421267308
 C        -6.5851854669        5.8181652679        4.9500759062
 C        -6.6515969901        4.4426968739        3.9679597045
 C        -6.8998535549        5.0696490057        2.5902107870
 O        -7.9453141152        5.6577562668        2.3434897723
 C        -5.8314518906        4.8358971103        1.3116836121
 C        -6.1027924445        3.3700708301        0.7196415393
 O        -5.1653763208        2.5936860981        0.5904974642
 C        -7.5044971226        3.0733627639        0.2455596868
 C        -7.5273756631        1.9132182852       -0.7949114200
 C        -8.6406626340        0.8149694606       -0.6588164338
 O        -9.3871660287        0.5587360076       -1.6108516903
 C        -8.7654803656       -0.1685715753        0.5514581247
 C        -9.6013061486        0.7137250326        1.6077172238
 O        -9.0520253513        1.6196981731        2.2285678662
 C       -11.0267287126        0.4674193801        1.9565860785
 C       -11.9242858912        1.7562799576        2.0625605413
 C       -11.8217607944        2.6179480408        0.8496127299
 O       -10.8897044325        2.5162845666        0.0735582049
 C       -12.8329168855        3.8361128603        0.6660683279
 C       -13.6755581055        3.3170721359       -0.6062340195
 O       -12.9669638958        2.8966330659       -1.5199762239
 C       -15.2100277526        3.3491604790       -0.5924059776
 C       -15.6983031762        3.4565453143       -2.0444849775
 C       -15.3734656662        4.8396383422       -2.5927484128
 O       -15.0089586934        5.6964411608       -1.8913233941
 C       -15.2199677684        5.0687722472       -4.1409835967
 C       -13.8699771420        4.4554741685       -4.5099032620
 O       -13.6949471002        3.2282801398       -4.5313063296
 C       -12.7504187868        5.4307770296       -4.9708981404
 C       -11.5490755557        4.8469899595       -5.7779622887
 C       -10.7226805536        3.9498023182       -4.8274139106
 O       -10.6604707819        4.0343127401       -3.5782542064
 C       -10.1134624316        2.7425398288       -5.5998334721
 C       -10.9599576888        1.3842016491       -5.1527676127
 O       -11.0380725842        0.9284360451       -4.0424358067
 C       -11.4047717808        0.5407665616       -6.3824415622
 C        -9.8203889250        2.9555208562       -7.0795891006
 C        -8.7880507141        2.4747571404       -4.8445457544
 C       -16.3290072695        4.4316762890       -4.9807700252
 C       -15.2046878731        6.5602327895       -4.4219657590
 C       -13.6212403699        4.1929527136        1.9231454468
 C       -11.9386371185        5.0615333582        0.2723480450
 C        -9.4653025568       -1.5584989640        0.1259160072
 C        -7.4032637205       -0.3818431965        1.2456959282
 C        -6.2189910840        5.8608847311        0.2818403164
 C        -4.3013774936        5.0552663221        1.6279929759
 C        -5.4772289144        6.3613725804        8.7710498736
 C        -6.0801218905        8.0131302617        7.0196588155
 H        -1.9562843190        6.3655566682        7.5312376243
 H        -2.8894012030        4.9694506146        7.1811126016
 H        -3.2782269204        5.8397999230        8.6856367571
 H        -6.1152259619        6.6340713149        4.3674330271
 H        -7.6092935659        6.2120952076        5.0444512649
 H        -7.4950174039        3.8241338667        4.3292658069
 H        -5.6318453649        4.0610059846        4.1190045238
 H        -7.9616305676        3.9233114670       -0.3678362126
 H        -8.1855156923        2.8149118684        1.0848694201
 H        -6.6050043302        1.3355137179       -0.8651457983
 H        -7.6475945041        2.3005507376       -1.7657876531
 H       -10.9735487889       -0.1404609554        2.8442582539
 H       -11.5029949958       -0.1778116665        1.2626022789
 H       -11.8206403268        2.4450823780        2.9242568647
 H       -12.9949032356        1.4245305501        2.1010943039
 H       -15.5250833397        4.1210259646        0.0386004682
 H       -15.5856262332        2.3660931091       -0.2488083489
 H       -16.7278019171        3.2249705308       -2.1354073069
 H       -15.2101057966        2.7196293997       -2.6526817107
 H       -12.4559748711        5.7607981435       -3.9444559164
 H       -13.1626229320        6.3771035351       -5.3390984061
 H       -10.9615444289        5.7582716751       -6.1214943428
 H       -11.9115507237        4.3886187631       -6.6837559065
 H       -10.6402801205       -0.1724997210       -6.2464893071
 H       -11.2308383226        0.9546270511       -7.3811706934
 H       -12.4029939661        0.1325679756       -6.3461360675
 H        -9.0048029703        3.7320305550       -7.2640379214
 H       -10.6720724743        3.2846551493       -7.6631497758
 H        -9.4938165773        2.0196704636       -7.4434011949
 H        -8.9253611948        2.3567712244       -3.8278900828
 H        -8.0280271611        3.2211456914       -5.0203636569
 H        -8.3477807904        1.5404094905       -5.2485387328
 H       -16.7402017913        3.5230660534       -4.6139397079
 H       -15.9246381896        4.2125956626       -5.9059433810
 H       -17.1796852677        5.1195414330       -5.1305035467
 H       -14.8732043172        6.9401784290       -5.4058364184
 H       -14.5362272298        6.9686250910       -3.7204455356
 H       -16.2636336217        7.0077452757       -4.2164864465
 H       -12.9808571154        3.8757090530        2.7448094653
 H       -14.5369718674        3.5842462363        2.0682946314
 H       -14.0121626976        5.1910434521        1.9844209311
 H       -11.9376377616        5.6433210770        1.1795969809
 H       -12.4286132230        5.6257748448       -0.4849298637
 H       -10.9667018420        4.8729875111       -0.0061713548
 H        -9.5359229436       -2.2747086030        0.9702551925
 H        -8.8491974643       -2.0096613436       -0.6784634052
 H       -10.5063035941       -1.4905727973       -0.1644874160
 H        -7.0011448903        0.5015721604        1.7458039442
 H        -6.5620416397       -0.7177367304        0.5639620550
 H        -7.5599693762       -1.0849747286        1.9906294037
 H        -6.3219551931        6.8920170462        0.5477418518
 H        -7.1564553244        5.4297949991       -0.1079430622
 H        -5.4386686170        5.7732421794       -0.4475163523
 H        -3.9127103791        6.0583563165        1.9064899666
 H        -3.7234194820        4.8723007510        0.7002151946
 H        -3.9513223484        4.2925614364        2.3217823919
 H        -5.1030022425        5.3661300495        8.9026411126
 H        -6.5381330112        6.3464454858        9.1767531387
 H        -4.9788232175        7.0772697009        9.3930530874
 H        -5.6976133913        8.5295500335        6.1363332142
 H        -6.1779997089        8.6548501549        7.9130560256
 H        -7.1617207959        7.8279298750        6.7567728898
 Na      -10.8065443262        2.3013908061       -2.2059414634
