117

 C       -13.5261574278        2.2440414297       -2.1090308091
 C       -13.0828911960        2.2761373310       -0.6536275495
 O       -12.9743053539        3.3375364068       -0.0161104459
 C       -13.0210009857        0.8180010074        0.1940037776
 C       -11.9546542269        0.9590694767        1.4026383990
 O       -12.2203076490        1.9537491281        2.1029354369
 C       -10.7958362184        0.1043649554        1.6503435371
 C       -10.1716449037       -0.0866400587        3.0679510340
 C       -11.3740438003       -0.2859981012        4.0650656271
 O       -12.4870368927       -0.2860120834        3.6180430304
 C       -10.9112202560       -0.5745886178        5.5750325022
 C       -10.3366078202        0.9004590362        6.1085351954
 O        -9.1460987320        1.1259394262        6.0623609737
 C       -11.3151897039        1.9857990184        6.5345086111
 C       -10.7237193342        3.4229470862        6.5190623174
 C       -10.9645804531        3.9052984950        5.0762180741
 O       -11.9515792382        3.7713891437        4.4662512590
 C        -9.5428365424        5.1632207228        4.6836781086
 C       -10.0577417928        5.6445771850        3.3209479802
 O       -10.1871820662        4.8889764265        2.3694293901
 C       -10.7814942509        7.0180700764        3.3203141520
 C       -10.6524343407        7.6420379313        1.9599870616
 C       -11.7713057438        7.1121255141        0.9319184566
 O       -12.3364982399        6.1602530316        1.1921911823
 C       -11.9952000881        8.0991998453       -0.3499214874
 C       -10.6896859846        8.1537436833       -1.0957604160
 O        -9.8316520074        8.8524935950       -0.6172924923
 C       -10.5951099986        7.3597782813       -2.4086250114
 C        -9.1278384289        6.8917541470       -2.6197503832
 C        -8.7560650957        5.4803472660       -2.1939723481
 O        -9.6282133403        4.6936267566       -1.7747795230
 C        -7.4649280364        4.8246138227       -2.4748336402
 C        -7.6979409462        4.5927145523       -4.0466986102
 O        -7.4769776147        5.5292673960       -4.8112471057
 C        -8.3612633473        3.2735954934       -4.3692485361
 C        -7.5367839615        2.1951247324       -5.1017930370
 C        -6.4798134958        2.8180076043       -6.2326294241
 O        -5.6570619209        3.5154856730       -5.7043509356
 C        -6.3205674277        2.4931981412       -7.7596170205
 C        -5.5943274203        1.0791026285       -8.0353660091
 O        -5.6899168687        0.0535613832       -7.3514097065
 C        -4.9350140695        0.8161687684       -9.3871259137
 C        -7.7651024946        2.9636200620       -8.3141266471
 C        -5.2977107287        3.5702418855       -8.4042623203
 C        -6.3038085870        5.9205662116       -2.4341288804
 C        -7.1051324187        3.7158988866       -1.5380019990
 C       -13.2475059329        7.3742080371       -1.0956797267
 C       -12.5130721011        9.4139263209        0.2955176127
 C        -9.1653561672        6.2369831761        5.7334368933
 C        -8.2700636291        4.1710067273        4.4962861125
 C       -12.1969804262       -1.1767561814        6.3421406037
 C        -9.8669074903       -1.7015182183        5.5961951320
 C       -14.3739069209        0.5258212750        0.6770589744
 C       -12.4569165698       -0.3659299068       -0.7482973474
 H       -12.6758918406        2.1426271939       -2.7162645160
 H       -14.1125419112        3.1606298621       -2.3091717707
 H       -14.1465935875        1.3614975264       -2.2612872201
 H       -10.0356654818        0.2296476975        0.8496632796
 H       -11.1695203437       -0.9193703844        1.1956279635
 H        -9.5140812523        0.7008323429        3.4269585416
 H        -9.6096131216       -0.8914373957        3.0723242571
 H       -11.5627632139        1.7747782870        7.5448579549
 H       -12.2463879098        1.9455945733        6.0471435024
 H        -9.6468984259        3.5052852698        6.6537001421
 H       -11.2406094600        4.0097238849        7.3217692740
 H       -10.3564767667        7.5405967328        4.1883889945
 H       -11.8697902029        6.9256718112        3.6073177002
 H        -9.7558868692        7.2773896612        1.3314401203
 H       -10.5691345236        8.7753837064        1.9175641711
 H       -10.8935153399        7.8736403630       -3.2950113411
 H       -11.3106929112        6.4901500085       -2.3300185240
 H        -8.4521464596        7.6508444608       -2.3354394513
 H        -8.9197039930        6.7624709950       -3.6644691276
 H        -9.1097708974        3.5442826952       -5.1243411239
 H        -9.0700305090        3.0547640427       -3.6425292689
 H        -8.2166593666        1.5013311924       -5.6248845228
 H        -6.8640237919        1.6507532706       -4.3582148322
 H        -5.5476791779        0.0829603346       -9.9588207669
 H        -4.0504649600        0.2300195976       -9.2307208523
 H        -4.6700568013        1.6743046601      -10.0501650563
 H        -7.9732666379        2.5627344807       -9.4126520144
 H        -7.6881367169        4.0101899259       -8.3425990674
 H        -8.6123591935        2.5895685881       -7.6722447952
 H        -5.7381926862        3.9142478639       -9.4182735045
 H        -4.2993391727        3.2668276722       -8.4751526393
 H        -5.2631913522        4.4520561549       -7.7658195272
 H        -5.8395386865        5.8305963898       -1.4937406220
 H        -6.5024613823        6.9084665412       -2.7497315054
 H        -5.6170869802        5.6148227705       -3.1485162504
 H        -7.6325785875        2.7888238261       -1.7706610679
 H        -7.5236501356        3.9846288814       -0.5085015456
 H        -6.0560467537        3.6184314050       -1.3780748869
 H       -14.1619739029        7.8995803831       -0.7632233540
 H       -13.3701911332        6.2992717624       -0.8347065271
 H       -13.2541464212        7.4791636527       -2.1799686868
 H       -12.9555016888        9.1794314349        1.2553888251
 H       -13.2474078104        9.8633624440       -0.4490028816
 H       -11.5942262652       10.0634079241        0.4516946347
 H        -8.1034897330        6.4037593170        5.6551893877
 H        -9.4661905273        5.9394467745        6.7233378617
 H        -9.5933536254        7.2578263262        5.3825037872
 H        -8.2208143982        3.2023618930        4.9834104396
 H        -7.3239969040        4.6302657340        4.8537307383
 H        -8.2910949523        3.9611181960        3.3625734901
 H       -12.6675901389       -0.4371031168        7.0764470634
 H       -11.9684548384       -2.1686249712        6.7815606322
 H       -13.0345780446       -1.3022353774        5.5968474411
 H        -8.9466037308       -1.4309806143        5.0174849021
 H       -10.4033446022       -2.6171084056        5.3014683581
 H        -9.4471733011       -1.7415094769        6.6637534629
 H       -14.3419712528       -0.4707428728        1.1540536731
 H       -15.0744876311        0.6111188946       -0.1089724211
 H       -14.5216948472        1.1451485675        1.5658556365
 H       -12.4271809103       -1.3807265346       -0.3021710263
 H       -11.3866056750       -0.3386063062       -0.9601215115
 H       -12.9236181158       -0.3640877560       -1.6832295640
 Na      -12.1484513223        4.1091875218        2.0968786895
