117

 C       -13.3313179791        2.1568516287       -2.0478441071
 C       -13.0335901401        2.2820295972       -0.5595635628
 O       -13.1065848130        3.3048317746        0.0124604487
 C       -12.8964637958        0.9896487369        0.1605524801
 C       -12.0102807301        1.0734273192        1.5115299718
 O       -12.1866463445        1.9632590848        2.2737121163
 C       -10.8335033250        0.0917783773        1.6599697009
 C       -10.3077353207        0.1110713310        3.0436695060
 C       -11.4072756354       -0.1324245002        4.0790386480
 O       -12.5578770481       -0.3379864663        3.7177072982
 C       -11.0756891676       -0.4074930474        5.5498382483
 C       -10.4454517570        0.8452084263        6.0605015903
 O        -9.2271427666        0.8680103289        6.0383722122
 C       -11.3720354464        2.0503362094        6.3288959284
 C       -10.8013371333        3.4541474476        6.4439713393
 C       -10.7653159333        4.2038591221        5.1192602025
 O       -11.7323183561        3.9454480059        4.4174486973
 C        -9.5813849606        5.1009654665        4.6909605571
 C       -10.1442694600        5.6504644135        3.3677302046
 O       -10.1214489090        4.8263926917        2.4845408065
 C       -10.6934445386        7.0597553704        3.2552867608
 C       -10.5413332516        7.5915494539        1.8644197659
 C       -11.7034766711        7.1553138022        0.9143553765
 O       -12.3218673471        6.0956256752        1.0236719630
 C       -12.1819021517        8.0881901433       -0.2444135822
 C       -10.8299242803        8.1034920253       -1.1222489794
 O        -9.8556858714        8.6594870121       -0.6259595924
 C       -10.4956999184        7.4502715606       -2.5144706896
 C        -9.0665759464        6.9640044302       -2.5970386980
 C        -8.8697327398        5.5167347679       -2.2253564334
 O        -9.6990159426        4.7810662486       -1.7094323043
 C        -7.3739233065        4.8356963681       -2.5490178955
 C        -7.6557967669        4.4666685910       -4.0773695214
 O        -7.5170963113        5.2821136508       -4.9393486398
 C        -8.3508705900        3.0675196536       -4.6418292346
 C        -7.3820437474        2.1518266521       -5.2858056737
 C        -6.2331633811        2.7490560068       -6.1241893473
 O        -5.4118122863        3.4646503797       -5.6361910712
 C        -6.3816336425        2.5079166913       -7.7150467126
 C        -5.8221245628        0.9320923673       -7.9986395535
 O        -5.8417811282        0.1979195681       -7.0767053372
 C        -5.0210585387        0.5608847383       -9.3637531425
 C        -7.8067889321        2.8158036703       -8.2033067808
 C        -5.4469903269        3.5144498292       -8.3716278944
 C        -5.9963892263        5.7945111800       -2.5411069465
 C        -7.2540720308        3.6692564236       -1.6003801343
 C       -13.2764085009        7.4164199072       -1.1120944291
 C       -12.5648416932        9.4567455392        0.3465715144
 C        -9.0672435629        6.0908221000        5.7880023378
 C        -8.2752530855        4.2857672856        4.4062203518
 C       -12.3183182321       -0.9695842040        6.3927466911
 C       -10.0024433329       -1.4638259394        5.6129901083
 C       -14.4038590940        0.5607002335        0.5439666075
 C       -12.2913314939       -0.1839095809       -0.7715950088
 H       -12.4945196467        1.7581195627       -2.6533396949
 H       -13.6924307257        3.2106759196       -2.2775684314
 H       -14.1003462016        1.4859839018       -2.2334838807
 H       -10.1001095760        0.2769951241        0.9424511182
 H       -11.0509608281       -0.9029340679        1.3138626107
 H       -10.0097645993        1.1185598416        3.3235163508
 H        -9.3725841122       -0.4555304195        3.2751549567
 H       -11.9794686136        1.9261764146        7.2574103781
 H       -12.1849102345        1.9789882303        5.5628684826
 H        -9.7623701346        3.4180978179        6.8277614955
 H       -11.4040591023        3.9792573700        7.1932832275
 H       -10.1584425343        7.5209048859        3.9955609696
 H       -11.7882007717        7.0867255215        3.6420965672
 H        -9.6855527809        7.1835832251        1.3918337396
 H       -10.4949195456        8.6809981473        1.7235563289
 H       -10.6721963500        8.0900009912       -3.3898550913
 H       -11.2080773346        6.6138096333       -2.5973332166
 H        -8.5069487486        7.5688417195       -1.8748410621
 H        -8.5067628554        7.1378942175       -3.4699239124
 H        -9.2552975628        3.2880333205       -5.1662616250
 H        -8.8666992542        2.5867424060       -3.7582601431
 H        -7.8033549752        1.4637836748       -6.0206736065
 H        -6.8814844275        1.5888967245       -4.4118841212
 H        -5.6017839481        0.1208343245      -10.0669433452
 H        -4.2522131600       -0.1736723888       -9.2160245734
 H        -4.5850445361        1.4612561294       -9.8010107986
 H        -8.0000539744        2.3666283194       -9.1814536881
 H        -7.9260449931        3.9415765958       -8.2553225065
 H        -8.5531218220        2.3249930381       -7.5388796614
 H        -5.8033546810        3.6652896773       -9.3151275509
 H        -4.4191963490        3.0552927955       -8.3831335948
 H        -5.3059072383        4.4537029282       -7.8906260157
 H        -5.6840623468        5.9943667724       -1.5313757601
 H        -6.2004723202        6.7133646424       -3.1059640216
 H        -5.2029624375        5.3800447310       -3.0748503602
 H        -8.1741125323        3.0174565063       -1.6628538311
 H        -7.2558524175        3.9658080863       -0.5710798379
 H        -6.2360394408        3.1227161094       -1.7240641594
 H       -14.2966998130        7.6876080464       -0.8034002281
 H       -13.2017011110        6.3277817374       -1.0666065858
 H       -13.1832616471        7.7210594258       -2.1468971651
 H       -13.0031921635        9.5295718883        1.3909110421
 H       -13.0265099812        9.9535200849       -0.4847328308
 H       -11.5061751338        9.8507417428        0.3933279483
 H        -8.2871470460        6.6526035356        5.3924830315
 H        -8.8681031938        5.5473616323        6.7828216067
 H        -9.8899600437        6.9006220714        5.7932375787
 H        -8.1691900844        3.4304163492        5.0808092386
 H        -7.4154186965        4.8921435835        4.7135879522
 H        -8.2194830374        3.8846785585        3.3883347194
 H       -12.9570836272       -0.1832819422        6.9246221626
 H       -11.9574723769       -1.7060575360        7.1052395171
 H       -13.0420076607       -1.4319785353        5.6858400005
 H        -9.1352962071       -0.9415064551        5.1178837930
 H       -10.3332960432       -2.3156093751        5.0770829749
 H        -9.6326513344       -1.6223367700        6.6168866314
 H       -14.3980086200       -0.4059318363        0.8720521104
 H       -14.9923135347        0.7149577718       -0.3275703024
 H       -14.6905426876        1.1814063482        1.4053394545
 H       -11.8376778121       -1.0186902153       -0.3947931766
 H       -11.4350796503        0.1850087359       -1.3187261637
 H       -12.9577200182       -0.3789801686       -1.5919676109
 Na      -12.1075570693        4.0797088740        2.2336288545
