117

 C       -12.6550206113        2.7878381627       -1.9286962293
 C       -12.8776094056        2.6962968437       -0.4558895661
 O       -13.3280868268        3.6266176262        0.1752324065
 C       -12.7064817529        1.2434386191        0.0441443954
 C       -12.0374777971        1.2380508546        1.4754836734
 O       -12.3731579484        2.0343043415        2.3081710386
 C       -10.9477209706        0.2373224681        1.9469370921
 C       -10.7698444453        0.3751626124        3.3934792283
 C       -11.8095136122       -0.3510189555        4.2728643847
 O       -12.7287741898       -0.9696009340        3.7802817117
 C       -11.5439215754       -0.1991800885        5.8608701438
 C       -10.7227639887        1.1659196956        6.2577372151
 O        -9.5068632078        1.1839269847        6.1365423329
 C       -11.4793678844        2.4638999375        6.7245355831
 C       -10.7209548014        3.8746056895        6.7603565575
 C       -10.7902009900        4.3546904968        5.2693320379
 O       -11.8166561469        4.3270230568        4.6531457490
 C        -9.4453383665        4.9891317001        4.7375434337
 C        -9.5396265523        5.5356545941        3.1704132937
 O        -8.6343268065        5.2547349942        2.3912324990
 C       -10.5737469774        6.7109091486        2.9441933079
 C       -10.2146770187        7.5305898758        1.6583821514
 C       -11.5648282374        7.3140108718        0.6564926276
 O       -12.5117968670        6.7272337414        1.0719894464
 C       -11.7316726924        8.1954892881       -0.6354390708
 C       -10.4210722516        8.2525140364       -1.4766257776
 O        -9.4810662322        8.7931402352       -0.9435801580
 C       -10.2416738023        7.7900676543       -2.9886247319
 C        -8.8777760821        7.0935561858       -3.1775432494
 C        -8.9736391530        5.6776909885       -2.4154442438
 O        -9.9963665978        5.2586660188       -1.8506032609
 C        -7.6740634321        4.6533153936       -2.6675967521
 C        -8.1058137077        4.1224936996       -4.1531238856
 O        -8.3706804069        4.8551793214       -5.0772561776
 C        -8.0970433051        2.5207761284       -4.5408979005
 C        -6.7950725179        1.7002706786       -4.8831847849
 C        -5.8382597826        2.3070018039       -5.9796168179
 O        -4.8860066186        2.9193436676       -5.6162663602
 C        -6.1721732655        1.8902601003       -7.5508928554
 C        -6.0174877424        0.3338381007       -7.7976334740
 O        -6.0440515972       -0.4077330799       -6.8381120361
 C        -6.1864577385       -0.2504527258       -9.2806691031
 C        -7.6805592436        2.1839468511       -7.7610604426
 C        -5.3065286762        2.7477610445       -8.4810646599
 C        -6.3616589100        5.6483680688       -2.9556570866
 C        -7.4677563698        3.6003151167       -1.6273721178
 C       -12.8751715005        7.3804891504       -1.3364515114
 C       -12.1899056808        9.5619445196       -0.2284911820
 C        -8.9737512790        6.1435432328        5.7280981114
 C        -8.2541239979        3.9263439561        4.6905468610
 C       -12.9994160244       -0.3383110004        6.3856155121
 C       -10.7717922905       -1.4810823086        6.4400351073
 C       -14.1900834279        0.5695587795       -0.0108031823
 C       -11.7347328304        0.3312128343       -0.8535501621
 H       -11.6143760547        2.7545357655       -2.0218939141
 H       -13.2281894652        3.7876549375       -2.1793442645
 H       -12.9255453225        1.9307319093       -2.5804077271
 H        -9.9934441334        0.2318932731        1.5218062170
 H       -11.3664536744       -0.7952478196        1.7724447391
 H       -10.7811400350        1.5011692588        3.7802718433
 H        -9.7972147421        0.1693301458        3.7176140866
 H       -11.7828665476        2.3159407620        7.8231956342
 H       -12.5691203769        2.6233604548        6.4011083450
 H        -9.6553157265        3.8042449193        6.8357106692
 H       -11.1464361601        4.5445647944        7.5272459199
 H       -10.5383606742        7.3190432753        3.9050126360
 H       -11.6149326303        6.4475676165        2.7760332995
 H        -9.3879691696        7.2532991873        1.0998766203
 H       -10.1217614018        8.5145173143        1.9541747115
 H       -10.2360255839        8.7404608333       -3.5146377902
 H       -11.0160706060        7.0838700706       -3.4026521372
 H        -7.9278953156        7.6207053727       -2.9298980472
 H        -8.7977895801        6.7104776711       -4.2540404249
 H        -8.5518191010        2.5760856285       -5.5710327658
 H        -8.5089376051        1.9910225902       -3.7535470784
 H        -7.2052583242        0.9138223727       -5.5012772805
 H        -6.1328289344        1.2702072496       -4.1664180626
 H        -6.1643791624        0.4228943319      -10.0830783413
 H        -7.0882664930       -0.7369374277       -9.2174733715
 H        -5.4535288012       -0.9933308667       -9.6139557570
 H        -7.8448125473        2.1987155150       -8.9002135889
 H        -7.9110835045        3.0437027890       -7.2664802179
 H        -8.2587051556        1.4106733621       -7.3025251080
 H        -4.7888599657        2.0729817084       -9.1958117843
 H        -4.5337029169        3.0785085162       -7.8787194164
 H        -5.8069643513        3.5326346728       -9.0047735602
 H        -5.8899919093        6.0199669414       -1.9790323224
 H        -6.3819449434        6.6017592189       -3.5267578102
 H        -5.6121626167        4.9943968414       -3.3419872101
 H        -7.4845061953        2.7231450272       -2.2307956522
 H        -8.3462315770        3.5867564203       -0.9034793363
 H        -6.4901230179        3.6324586262       -1.1501465059
 H       -13.8101684718        7.9075004299       -1.2697288832
 H       -13.0107750550        6.3511371205       -0.9979419555
 H       -12.7129197726        7.2171619582       -2.3910367522
 H       -12.8246628319        9.3504913770        0.5916917123
 H       -12.6393491630       10.0127783249       -1.1690095765
 H       -11.3362226490       10.1045796091        0.2490944663
 H        -9.7278102516        6.5660880430        6.3055428608
 H        -8.5279382744        6.8457671671        5.0715561759
 H        -8.0568205984        5.6518774983        6.3306153479
 H        -8.3905114135        3.2389720595        5.4542435117
 H        -7.2549150452        4.3248766568        4.6556276486
 H        -8.2949710549        3.3220937127        3.7843334099
 H       -13.4517724259       -1.3290406579        6.2237296554
 H       -13.7159719311        0.2396235239        5.8334931975
 H       -13.0901743792       -0.2520771786        7.4724972477
 H       -10.0132312218       -1.8936460258        5.8556283332
 H       -11.5162023262       -2.1913018363        6.3650128801
 H       -10.5944931402       -1.2584302708        7.4710514522
 H       -14.2253566101       -0.4621053503        0.0485562821
 H       -14.5973745030        0.7477440347       -0.9387305768
 H       -14.7955690272        1.2259500591        0.6040774188
 H       -11.2818600073       -0.4769825035       -0.2425364289
 H       -10.9498940463        0.9374899888       -1.2201538984
 H       -12.0089844366       -0.2968048708       -1.6605645348
 Na      -12.5411980199        4.4471827492        2.2496012488
