117

 C       -12.5237889065        3.2265254627       -1.9488111008
 C       -12.6906925586        2.7575005288       -0.5092538194
 O       -13.1691844243        3.7251735843        0.1425656862
 C       -12.4411652712        1.4103500406        0.0169639825
 C       -12.0060356601        1.4063777000        1.5976332856
 O       -12.4506061987        2.2658395859        2.3642509220
 C       -11.2603301964        0.2127776987        2.0903789194
 C       -10.6420106659        0.3213383944        3.5318159944
 C       -11.7435648935       -0.2750773966        4.4785703370
 O       -12.5155721580       -1.0955592819        4.0761273755
 C       -11.8094406406        0.0262582489        6.0259278146
 C       -11.0734643708        1.3930211324        6.1750833812
 O        -9.8538003980        1.3076748303        5.9991101590
 C       -11.8264695728        2.5388232313        6.7316479014
 C       -10.7827433840        3.6432909049        6.5698451783
 C       -10.6719001228        4.2083693581        5.1205455454
 O       -11.6074141312        4.2562878764        4.3040119515
 C        -9.2549765787        4.8266309155        4.7870838053
 C        -9.2877043384        5.7602879100        3.3068890351
 O        -8.6485549085        5.3094329621        2.4302073666
 C       -10.2246439344        7.0760585540        2.9542352512
 C       -10.1713673827        7.2349425022        1.4666331826
 C       -11.5133620591        7.2178909817        0.7410600385
 O       -12.5413812050        6.5121876573        1.0257905292
 C       -11.6893119241        8.0972346611       -0.7019139732
 C       -10.3055865547        8.0911741177       -1.4888347641
 O        -9.3501818379        8.5400856504       -0.8931775871
 C       -10.1628180761        7.8872355798       -2.9929230386
 C        -8.8423784900        7.1835327476       -3.2893193681
 C        -8.9477020689        5.6939671899       -2.6989681507
 O        -9.8246783589        5.3476688768       -1.9725571780
 C        -7.6877727505        4.7052539421       -2.8605689669
 C        -8.2166358498        3.8832024941       -4.1205395248
 O        -8.8151200802        4.5864859733       -4.9359554188
 C        -8.0988937261        2.3413036934       -4.3458666526
 C        -6.8692081811        1.5203435300       -4.7958595864
 C        -5.9922266958        2.0940908157       -6.0252470715
 O        -4.9470009868        2.6839576180       -5.7894956462
 C        -6.1738241315        1.5942088831       -7.5332349889
 C        -6.1205930673        0.1012626958       -7.7145088013
 O        -5.8850553196       -0.5694947422       -6.7139619609
 C        -6.4927450576       -0.4334819937       -9.0900408603
 C        -7.6029083874        2.1147494639       -8.1210499673
 C        -5.1026294695        2.4687458888       -8.3618309623
 C        -6.3270025574        5.4743682262       -2.9719642602
 C        -7.6140406512        3.8781809796       -1.4504132364
 C       -12.9214122717        7.6018487044       -1.5249936176
 C       -12.0645585422        9.6872965448       -0.5140980378
 C        -8.9774368980        5.9100680972        5.9483475835
 C        -8.2296556607        3.7049135952        4.5770723279
 C       -13.2140794156        0.1929382880        6.5922664872
 C       -10.9408401832       -1.1109664356        6.5949952705
 C       -13.9112398894        0.6726865692        0.1226903543
 C       -11.5781859236        0.5035925331       -0.9978227296
 H       -11.4578185348        3.2949076479       -2.3040919857
 H       -13.1237400965        4.0199260929       -2.0930178856
 H       -12.8939176614        2.3863806181       -2.5195497456
 H       -10.3701057342       -0.1199292667        1.4004429830
 H       -11.9406580217       -0.6984731672        2.1262899651
 H       -10.2913577555        1.2044546945        3.8875315524
 H        -9.7641840821       -0.3952058688        3.6470801795
 H       -12.1499253923        2.5479717613        7.7280350361
 H       -12.7411661364        2.7274329391        6.2580594518
 H        -9.7344479306        3.3901074220        6.8060004608
 H       -11.1061844477        4.4497655198        7.2476698649
 H        -9.8756228317        7.9848741296        3.4653703824
 H       -11.3033699272        6.8805504254        3.1793275833
 H        -9.5655424719        6.3940841756        0.8894817735
 H        -9.5929405530        8.2083339343        1.2447411141
 H       -10.1104829516        8.8690716479       -3.5108163301
 H       -11.0106775792        7.3156070502       -3.2506776247
 H        -8.1023518162        7.7486594486       -2.6740069456
 H        -8.4929767234        7.2298762751       -4.3076016811
 H        -8.7373658412        2.2825925555       -5.1649881121
 H        -8.3821861040        1.9494810674       -3.3351090999
 H        -7.0210007284        0.4600863552       -5.0976718832
 H        -6.1028856689        1.4333378702       -4.0044245681
 H        -6.3802655226        0.4440069912       -9.8388177528
 H        -7.4956583384       -0.9913544044       -9.1823682859
 H        -5.7862641319       -1.1582584396       -9.5005705992
 H        -7.6260549983        1.9203948213       -9.1432430802
 H        -7.6774118813        3.2231210338       -7.9781322761
 H        -8.3776610608        1.6147461538       -7.5360587312
 H        -4.6936192322        1.9284086588       -9.2140140347
 H        -4.2017695589        2.7455153376       -7.7684130784
 H        -5.6892538421        3.3602009087       -8.6754336521
 H        -6.3151493976        6.3264292598       -2.3180355886
 H        -6.0104122401        5.9584897161       -3.9046051846
 H        -5.5219664299        4.7525830084       -2.6028735696
 H        -6.6515435392        3.3938236311       -1.3153668263
 H        -8.4931525637        3.2768114797       -1.2959878528
 H        -7.6211972866        4.6699160773       -0.7737159231
 H       -13.6153977488        8.3442397109       -1.8993027154
 H       -13.4657647346        6.8259333626       -1.0120066876
 H       -12.6353599413        7.0087557582       -2.4028376196
 H       -12.6771256206        9.9093618412        0.3999862428
 H       -12.4941808696       10.0704562902       -1.4167474300
 H       -11.0849396414       10.0493580548       -0.4127615937
 H        -9.6546968418        6.7317910576        5.5408895196
 H        -7.9858876298        6.3126695062        6.0557118009
 H        -9.2402478541        5.4913241832        6.8744487577
 H        -8.2900259748        2.9153278323        5.3713071143
 H        -7.2010479328        4.0951140438        4.5050186923
 H        -8.5294337015        3.1590400057        3.7015515241
 H       -13.5924631527       -0.7048119413        6.9767156044
 H       -14.0197693817        0.3016583552        5.8567606998
 H       -13.3659842339        0.8849894659        7.3957043253
 H        -9.9450484521       -0.7652426642        6.2991062030
 H       -11.0470615929       -2.1232670454        6.0721159298
 H       -11.0780283624       -1.1446275493        7.6763378816
 H       -13.8247446249       -0.4623216224        0.2175083730
 H       -14.6299482477        0.8506365878       -0.7567567242
 H       -14.3631536339        1.2770002006        0.8622027110
 H       -11.5146749590       -0.5770276054       -0.9804177150
 H       -10.6107132240        1.0318004659       -1.0340813408
 H       -11.9000896100        0.6220100549       -2.0760036729
 Na      -12.7880641373        4.6024124758        2.2693919797
