117

 C       -12.3513756640        3.3588185736       -1.9284181436
 C       -12.5716761905        3.0683046429       -0.5186616625
 O       -13.1352661164        3.9143640340        0.1150648746
 C       -12.4279255499        1.5241058880        0.0149422059
 C       -12.0064711399        1.4453079849        1.5446979534
 O       -12.2153820938        2.3234051378        2.3659317771
 C       -11.1809598448        0.2008919400        1.9373471133
 C       -10.9574062030        0.1718764401        3.4802039137
 C       -11.9779740357       -0.4722191251        4.5511814432
 O       -12.7777582217       -1.3185483037        4.2093268425
 C       -11.9167786931        0.0516045132        6.1213232438
 C       -11.1312792432        1.5055561218        6.1844457382
 O        -9.9288024213        1.6128514376        6.0139554613
 C       -11.9466960939        2.9096790930        6.5586712933
 C       -11.1900650624        4.2685018216        6.4407999046
 C       -10.7481862177        4.5731439895        4.9274914899
 O       -11.3814899202        4.1385414044        3.9939818574
 C        -9.3168135625        5.1725717428        4.6651163355
 C        -9.1898122018        5.6660601046        3.1953365471
 O        -8.4650732460        5.1232245700        2.3406734004
 C       -10.1465490090        6.8703920553        2.9399598723
 C       -10.1147344273        7.3296743702        1.4124243001
 C       -11.5091680091        7.1793449765        0.6489921811
 O       -12.4508474981        6.5532651837        0.9794218495
 C       -11.5640657591        8.0022212906       -0.6520469032
 C       -10.2232045367        8.0684551614       -1.4606582665
 O        -9.1647208654        8.2498136896       -0.8285076723
 C       -10.1947458814        7.9077622562       -3.0835754850
 C        -8.8837575500        7.1132987626       -3.4246529465
 C        -8.8874997164        5.6954693247       -2.7635569248
 O        -9.8770289061        5.5080125999       -1.9943877356
 C        -7.7759429190        4.6224459881       -2.9302499008
 C        -8.2950364130        3.7474229348       -4.1243836877
 O        -8.8107474190        4.2976090303       -5.0536641646
 C        -8.1529739032        2.1931459316       -4.1310529604
 C        -6.8327130743        1.5903791372       -4.7016060643
 C        -6.0332524809        2.0941204362       -5.9191113474
 O        -5.0791666407        2.8011901917       -5.7254427115
 C        -6.3618196093        1.5785941214       -7.4951722500
 C        -6.3541903556       -0.0563543235       -7.5197300415
 O        -5.7195666654       -0.6177811087       -6.6707373736
 C        -6.5643858099       -0.7796124479       -8.8920013213
 C        -7.6010223646        2.2033664675       -7.9188050714
 C        -5.0972901782        1.8735921355       -8.3545875168
 C        -6.3193494153        5.0550328982       -3.4276566864
 C        -7.7163818270        3.6892630153       -1.5744376740
 C       -12.8031285622        7.4714267457       -1.5304021275
 C       -11.7431869388        9.5322566440       -0.0664511804
 C        -8.5445383118        6.1780276621        5.6405517996
 C        -8.3505089571        3.8483511631        4.6930731077
 C       -13.4239718221       -0.0272947410        6.5025047173
 C       -11.2407635163       -0.9951594141        7.0820294933
 C       -13.7953972596        0.8529467628        0.1019738688
 C       -11.3368147323        0.7634447240       -0.8997385466
 H       -11.2686371787        3.4256011939       -2.0061180229
 H       -12.7761829828        4.4146065224       -2.0458244834
 H       -12.6599203308        2.5996799740       -2.6745092222
 H       -10.2105448849        0.4074616550        1.6662073498
 H       -11.6267166101       -0.6589349354        1.5030611191
 H       -11.0779615324        1.3027711237        3.8230326085
 H        -9.9602218068       -0.0840927705        3.8111328516
 H       -12.2908191555        2.8915069663        7.6479996444
 H       -12.9287306658        2.8974376909        5.9838565051
 H       -10.2905875742        4.3298038801        7.0324528493
 H       -11.8149642756        5.1349647732        6.7025386573
 H        -9.9059082576        7.6626882628        3.6384514072
 H       -11.1030470903        6.4018513184        3.1345972424
 H        -9.2956852942        6.7465622286        1.1016114104
 H        -9.7938341800        8.3253671429        1.3647530303
 H       -10.1775637743        8.8875452167       -3.5374313973
 H       -11.1118579297        7.2963448476       -3.3983974743
 H        -8.0901534516        7.6765853113       -2.9788543589
 H        -8.7244359575        7.0759862121       -4.5088826110
 H        -8.9589971468        1.9478777612       -4.9003594919
 H        -8.2170842046        1.7241621612       -3.1464413999
 H        -7.0077792038        0.5687734098       -5.0452204338
 H        -6.1143194625        1.3574633953       -3.8885520603
 H        -6.1598481877       -0.2121952213       -9.6490879827
 H        -7.5620768386       -1.0046905438       -9.1306732944
 H        -6.1079571134       -1.7838293837       -8.8867023925
 H        -7.8810515069        1.9287494551       -8.9746812092
 H        -7.3634062516        3.2880494651       -8.0084331136
 H        -8.3090918002        2.0043214627       -7.0921375698
 H        -5.3480826553        2.0278505727       -9.3805789348
 H        -4.4461740819        0.9686174754       -8.3584385832
 H        -4.5644930724        2.7149073157       -7.9349098390
 H        -6.0800143216        5.9967972158       -2.9727377907
 H        -6.5269424212        5.4122320404       -4.4053835543
 H        -5.5122030800        4.4340283179       -3.4834062923
 H        -6.6508930588        3.5622376268       -1.3806277213
 H        -8.3454286901        2.8116796148       -1.6679630127
 H        -8.1174380056        4.3302853967       -0.6768035123
 H       -12.7087913787        7.7651797404       -2.5884940458
 H       -13.7872263036        7.7673774887       -1.1432517926
 H       -12.8968416925        6.3899006342       -1.5142242453
 H       -12.8201033866        9.7117650268       -0.2297575424
 H       -11.2827829156       10.2497869980       -0.7939747045
 H       -11.2326202479        9.6426880560        0.9585269328
 H        -8.9320975510        7.1904556396        5.5963374354
 H        -7.5111501742        6.3249652464        5.1139603666
 H        -8.3310926572        5.7114784201        6.5377206538
 H        -8.0192016506        3.4315793420        5.6486812825
 H        -7.4515465580        4.1895583251        4.1540243079
 H        -8.8953938811        2.9635563139        4.2100507090
 H       -13.9445245297       -0.8952415152        5.9780559117
 H       -14.1502167299        0.7213441706        6.2433516296
 H       -13.6219888016       -0.1087547491        7.5991086804
 H       -10.1167405476       -1.1217386492        7.0339853959
 H       -11.7208790380       -1.8613443081        6.6821600868
 H       -11.6749348451       -0.8553459634        8.0949439785
 H       -13.6564866394       -0.0150718957        0.7335797235
 H       -14.1185220392        0.4873967112       -0.8353587555
 H       -14.5896315825        1.5920228282        0.4256146645
 H       -11.7100750230       -0.2647975907       -1.0340190844
 H       -10.2845228148        0.7354155688       -0.5564158905
 H       -11.4022015582        1.0724556142       -1.9594966219
 Na      -12.8014986411        4.7595881611        2.4413615006
