117

 C       -11.8594001890        3.5313966117       -1.8651450316
 C       -12.5126936089        3.1034143516       -0.5440551016
 O       -13.2234142124        3.8381598805        0.1596068716
 C       -12.2636949332        1.6736093790        0.0082336915
 C       -11.9079531805        1.5107549058        1.5075043142
 O       -12.2134680856        2.4244411475        2.3304784764
 C       -11.5800525431        0.1743546396        2.1195629752
 C       -11.0663099395        0.3779920768        3.5792355283
 C       -12.1453028676       -0.0839175134        4.6613630332
 O       -12.8773593400       -1.0181594884        4.4081687235
 C       -12.2539659956        0.6046856541        6.0485605537
 C       -11.5230169214        1.9652446340        6.2260464767
 O       -10.3138225229        1.9387968599        6.2744956879
 C       -12.2174255824        3.4448954063        6.3598762261
 C       -11.0707986673        4.3780886786        6.2996417218
 C       -10.5287925802        4.6716029977        4.8265473866
 O       -11.3935133871        4.7533638011        3.9599593396
 C        -9.0482418524        5.1024252920        4.7224310047
 C        -8.9588792972        5.4805142030        3.1066639743
 O        -8.5407631998        4.6410049952        2.3595782499
 C        -9.7225784254        6.7820153373        2.8303867743
 C        -9.7569688519        7.1668786031        1.2751848229
 C       -11.2115352589        7.2209555374        0.6414308851
 O       -12.0636857210        6.4377179827        0.9128071221
 C       -11.2802462887        8.1001234557       -0.6221036991
 C        -9.9621694296        7.8692546185       -1.5139019407
 O        -8.8632047197        8.1696553291       -1.0193332228
 C       -10.1296392578        7.6322862590       -3.0467401342
 C        -9.0642961465        6.7012178543       -3.6025419432
 C        -8.8808794211        5.3787973166       -2.9080494847
 O        -9.5856134729        5.1358061550       -1.9233555793
 C        -7.8758888511        4.1975809488       -3.2902091030
 C        -8.4100397115        3.3939531608       -4.4993180860
 O        -8.9652029518        3.8941444031       -5.4453415557
 C        -8.1758720536        1.8245709314       -4.4122754229
 C        -6.6900189066        1.4684430774       -4.4187998662
 C        -6.1865761579        2.0549595842       -5.7457541834
 O        -5.5753155086        3.1265016261       -5.7666476558
 C        -6.3907736157        1.3506212813       -7.1332746524
 C        -6.5248559038       -0.1857802837       -6.9473491596
 O        -5.9548331455       -0.8176166681       -6.0876308834
 C        -7.2141328523       -1.1038328524       -7.9403862459
 C        -7.7187842110        1.8890788313       -7.8283005769
 C        -5.0102186877        1.6474313022       -7.9817336771
 C        -6.6405138700        5.0289806618       -3.7222734769
 C        -7.5785580994        3.3306676146       -2.1133057313
 C       -12.4784247256        7.7127119960       -1.5681590794
 C       -11.1688771832        9.5844916399       -0.3949490202
 C        -8.7907841469        6.1464741043        5.8817297914
 C        -8.1482679021        3.9905905729        4.8472156007
 C       -13.7926245926        0.5367895543        6.4166777708
 C       -11.6801763230       -0.4722979356        6.9588627705
 C       -13.6218641417        0.9069280202       -0.2644160025
 C       -11.1619479639        1.0014781944       -0.8078573086
 H       -10.7816769958        3.5162852979       -1.5912469568
 H       -12.0038970772        4.4875404364       -2.1945300340
 H       -11.9283840337        2.7629029133       -2.6575353911
 H       -10.8112535296       -0.2447019796        1.5943751421
 H       -12.5107603586       -0.2996162354        2.2054021840
 H       -10.8510550544        1.4540146169        3.7175637769
 H       -10.1946898399       -0.3216811194        3.8078232967
 H       -12.6408050773        3.5696450356        7.3516302375
 H       -12.9222136499        3.7181950897        5.6007591360
 H       -10.2222713781        4.1740823307        6.9515704986
 H       -11.4711184082        5.3835408536        6.5208092917
 H        -9.2569630642        7.5877171632        3.3664087098
 H       -10.7863279267        6.6918025001        3.1407631771
 H        -9.0177900261        6.7099098100        0.6423483416
 H        -9.3892038325        8.2131159940        1.3698003171
 H        -9.9703649860        8.5572089457       -3.5543499642
 H       -11.1253122924        7.1916220814       -3.3328475726
 H        -8.1803085228        7.2440857396       -3.4656460811
 H        -9.2175199000        6.5616670569       -4.6533367685
 H        -8.6185993779        1.2249221972       -5.2561495436
 H        -8.6758138284        1.1933476384       -3.6735266957
 H        -6.3350287178        0.4947139917       -4.1432796762
 H        -6.0549924008        2.1190446869       -3.7015369615
 H        -7.0830878517       -0.9478393714       -9.0234371318
 H        -8.3428067776       -1.0550026600       -7.8404694590
 H        -6.9446544589       -2.0858361110       -7.5766136779
 H        -7.8579932928        1.7298678134       -8.8905547562
 H        -7.8610641350        3.0442119655       -7.5328973911
 H        -8.5377552331        1.2989535792       -7.3323371724
 H        -4.3174899511        2.2538189066       -7.5263636108
 H        -5.2682320362        2.1047624925       -9.0187789779
 H        -4.6006051519        0.6700885362       -8.2901052453
 H        -6.5230790596        5.8167539984       -3.0023674946
 H        -6.6872929641        5.3789646367       -4.7289104478
 H        -5.7053463399        4.5110998230       -3.6627537641
 H        -7.6818992465        2.2616284314       -2.4955597122
 H        -8.3006911151        3.4040175470       -1.3418281124
 H        -6.4758995214        3.4145272975       -1.7961974522
 H       -12.7026757783        6.6211980530       -1.6004195721
 H       -12.3999196918        8.1459136925       -2.5639669570
 H       -13.4141508527        8.1161938828       -1.2016058638
 H       -10.3754436003        9.9355871307       -1.1220925559
 H       -10.9863532512       10.0194849222        0.5458596517
 H       -12.2001312124        9.9935058294       -0.5661988413
 H        -9.6617042110        6.8886666719        5.9776526194
 H        -7.8438521203        6.8078924320        5.7574234870
 H        -8.7851060748        5.6200509904        6.7778847719
 H        -8.1090875271        3.5049394773        5.8660331210
 H        -7.0979662886        4.2992400581        4.6511680826
 H        -8.5271407516        3.2072810972        4.1363948431
 H       -14.1673827567       -0.5120906896        6.5555062070
 H       -14.4981677337        1.0003396532        5.7659014933
 H       -14.1374237729        1.0596237884        7.3154018163
 H       -10.5440090130       -0.6143746403        6.7720237063
 H       -12.3103702786       -1.3631804739        6.7903211332
 H       -11.8185049784       -0.2394956117        8.0304011940
 H       -13.2957703070       -0.1402645101       -0.3059980274
 H       -14.1330197422        1.2660323617       -1.1841464837
 H       -14.2914333491        0.8803366965        0.6445829186
 H       -10.7106764602        0.2015258260       -0.3201252969
 H       -10.2645962507        1.6790488296       -0.7263311922
 H       -11.4676447595        0.8895052878       -1.8491515346
 Na      -12.7243536324        4.7174703331        2.2228399217
