117

 C        -2.6659331478        6.4796817293        7.5050783496
 C        -3.9038565280        7.1569113160        6.8215539145
 O        -3.6310090631        7.9322986808        5.9378771268
 C        -5.3820250512        6.8485393483        7.1817266214
 C        -6.0037611446        5.6696166183        6.2882853392
 O        -5.9543354747        4.5306729265        6.8019599791
 C        -6.3932232347        5.8992936242        4.8225939188
 C        -6.3721763977        4.7262085723        3.8986265844
 C        -6.8600041842        5.0032539499        2.4586517352
 O        -7.9838265145        5.4428131895        2.2380855702
 C        -5.8726356536        4.7582457805        1.1977067661
 C        -6.0986270352        3.3521298574        0.4981826250
 O        -5.1774906068        2.6004120785        0.2590358085
 C        -7.5383787792        2.8937832795        0.0552391885
 C        -7.4640304811        1.6114219203       -0.7955509715
 C        -8.6179972801        0.6633343435       -0.5810484088
 O        -9.4387029254        0.4072273614       -1.4309649268
 C        -8.6691297162       -0.1519028692        0.7847349860
 C        -9.5146044853        0.7136377868        1.8862694095
 O        -9.0501314793        1.5750537064        2.5771197891
 C       -10.9907043252        0.3828998312        2.0530072736
 C       -11.9341338193        1.5404954364        2.1467791297
 C       -11.7441550040        2.6090374609        0.9751528255
 O       -10.8085936794        2.3563979368        0.2358058402
 C       -12.7209887736        3.7878091112        0.7615027123
 C       -13.5852281250        3.5036471417       -0.5827067690
 O       -13.0281909571        3.2176996623       -1.6043399151
 C       -15.1492218545        3.4403607969       -0.4727208423
 C       -15.7280541195        3.5342709606       -1.8798864316
 C       -15.4911671849        4.8167822680       -2.6063053455
 O       -15.3223300252        5.8100992030       -1.8552189053
 C       -15.3146486608        5.0420179606       -4.1268968785
 C       -13.9212426725        4.4589584605       -4.5773139241
 O       -13.7594481950        3.2888210444       -4.7656627801
 C       -12.7192853989        5.3943786552       -4.8378095680
 C       -11.6421766934        4.7312543208       -5.7159304824
 C       -10.8089035021        3.7687731367       -4.8283535989
 O       -10.6600954401        4.0190411681       -3.6361962023
 C        -9.9685920085        2.5176895513       -5.5018772650
 C       -10.8566098259        1.1965763296       -5.3440577820
 O       -11.1965235002        0.8850973085       -4.1808288715
 C       -11.3681842387        0.2920179241       -6.4434284049
 C        -9.6183460739        2.8503510417       -6.9627987273
 C        -8.6347184977        2.3618756462       -4.7067813183
 C       -16.5736921232        4.4576069831       -4.8227921651
 C       -15.4053146669        6.5830797338       -4.3531082620
 C       -13.5724574316        4.0286874334        2.0027726805
 C       -11.9341322493        5.1323088641        0.3854909099
 C        -9.3674704922       -1.5125032144        0.5300247669
 C        -7.2597014948       -0.4010407064        1.3038867269
 C        -6.3544053893        5.9105525336        0.1017210128
 C        -4.3962629481        4.9487907661        1.5826662658
 C        -5.6153381187        6.5048326194        8.6978804450
 C        -6.2152675091        8.1199009340        6.8493108907
 H        -2.0584068979        6.1388510947        6.6938231699
 H        -3.0678717067        5.6112891333        8.0089463753
 H        -2.2462225057        7.1733975099        8.2393675860
 H        -5.7134328635        6.7104340725        4.5103356622
 H        -7.4061292453        6.3462140277        4.7171607787
 H        -7.0278465654        4.0509625500        4.3807285076
 H        -5.3688103073        4.3530141567        3.9841616311
 H        -7.9274460297        3.6198393843       -0.5820610741
 H        -8.2689007690        2.6629215208        0.8257234373
 H        -6.5185051806        1.0817904128       -0.5701015364
 H        -7.4663194402        1.7833069455       -1.9156338496
 H       -11.1906850374       -0.1899212104        3.0096337516
 H       -11.2755065541       -0.3557953695        1.2513382210
 H       -11.9074084873        1.8874924561        3.1902787242
 H       -12.9469954985        1.1363130777        2.0328451401
 H       -15.5534745709        4.2036615961        0.3036698865
 H       -15.4435003609        2.4182047690       -0.1665813709
 H       -16.8406026207        3.3678795917       -1.9187711995
 H       -15.2909141838        2.6439492058       -2.4001602092
 H       -12.3383577885        5.6829996794       -3.8855535013
 H       -13.0579829758        6.3480042541       -5.1660757102
 H       -11.0823221935        5.5913097298       -5.9389930806
 H       -12.0682558835        4.2596299757       -6.6097399246
 H       -10.7385633028       -0.6010839761       -6.7358369947
 H       -11.4853342617        0.8886599255       -7.3063076129
 H       -12.4498664336        0.1734249419       -6.2051012708
 H        -9.4084671930        3.8870795997       -7.1164595042
 H       -10.5514904104        2.5570418328       -7.5433811306
 H        -8.8190126999        2.2230470936       -7.4541413885
 H        -8.8274706424        1.8841239013       -3.7042072859
 H        -8.1484580178        3.4092979113       -4.5438666710
 H        -7.9898973354        1.6709799267       -5.1697264286
 H       -16.7400088910        3.4505196538       -4.4619965224
 H       -16.4839230876        4.3571662193       -5.9184248887
 H       -17.4629854040        5.0177161735       -4.5531771402
 H       -15.4038957746        6.6741439898       -5.4322466092
 H       -14.5446160177        7.2492273154       -4.0388657732
 H       -16.2883403004        7.0088882263       -3.9874289794
 H       -13.0070902454        4.6573306301        2.6760151334
 H       -13.9838158596        3.2332917869        2.5346248318
 H       -14.4261913593        4.6378274764        1.6997833754
 H       -11.1196507238        5.3018376300        1.0965622359
 H       -12.6536020003        5.9664704707        0.2043667464
 H       -11.4442258881        4.9308214026       -0.6105120698
 H        -9.8056407013       -1.8487013343        1.4292892142
 H        -8.6235235743       -2.2588999401        0.2189268771
 H       -10.2842014865       -1.4578904314       -0.0755014162
 H        -6.6883004966        0.4911893364        1.5987030402
 H        -6.6687320384       -0.9269827540        0.5884917801
 H        -7.2973515245       -1.1055966303        2.2433350025
 H        -6.0027559445        6.8510938723        0.4934351165
 H        -7.4282626502        5.8795901296       -0.0187002969
 H        -5.7747191384        5.7731614290       -0.8151966164
 H        -4.1365296283        5.9012821132        1.9358181589
 H        -3.7583028179        4.8482648743        0.7234317979
 H        -4.0805468309        4.1670023393        2.2464787237
 H        -5.2199656547        5.5826798188        9.1454655414
 H        -6.6504163614        6.5919585864        8.8331932469
 H        -5.2444440626        7.3612647242        9.2805208307
 H        -6.7854070624        8.0951475148        5.9240727317
 H        -5.5348159698        8.9549753456        6.7535143561
 H        -6.8994372257        8.4106033796        7.6222829087
 Na      -10.6163736162        2.2929255723       -2.2228360150
