117

 C       -12.5853160707        2.9563191266       -2.0140194948
 C       -12.9107890388        2.7000982845       -0.5689619882
 O       -13.3982748846        3.6035640196        0.0535507235
 C       -12.2947404770        1.2391410534        0.1320107464
 C       -12.1219329772        1.4137290299        1.5925437532
 O       -12.1596468607        2.4296767103        2.2856418959
 C       -11.5603484501        0.2259137799        2.3371624119
 C       -11.3963494909        0.5504379343        3.7567812430
 C       -12.7288037669        0.6319812498        4.5097795530
 O       -13.7090845588        0.1067522772        4.0400158670
 C       -12.7381315259        1.1310123793        6.0509509764
 C       -11.7138926879        2.2012013157        6.3556204666
 O       -10.5191567993        1.9737052321        6.4891339524
 C       -12.2734146561        3.6340295472        6.8189930807
 C       -11.0627122347        4.5046046150        6.4954600014
 C       -10.8216730699        4.9785502035        5.0275664915
 O       -11.6653744320        5.2906232337        4.2269282519
 C        -9.2822940335        5.2584170031        4.6275902624
 C        -9.0052877156        5.5615433643        3.1088348866
 O        -8.9918056089        4.7652572611        2.1594076010
 C        -8.9022101505        7.0332912479        2.5041828640
 C        -8.9767934070        7.0813412428        0.9882191804
 C       -10.4116412580        7.3029766999        0.4631026677
 O       -11.4507170191        6.5994824820        0.7153442567
 C       -10.6309660120        8.4900578981       -0.7538047220
 C        -9.6952051737        8.1626567503       -2.0262220919
 O        -8.4692336737        8.3776656229       -2.0176039529
 C       -10.3829733225        7.3670916731       -3.1422831362
 C        -9.3727408551        6.3305483294       -3.7887785075
 C        -8.9075893728        5.2691676953       -2.7379210789
 O        -9.2104477346        5.4357473117       -1.5762278618
 C        -7.8124085357        4.2097501076       -3.0375633075
 C        -8.2891404617        3.2547166771       -4.1917281526
 O        -9.2844485743        3.5304283730       -4.8375102540
 C        -7.9356147274        1.7532389340       -4.2487203763
 C        -6.4202223364        1.2787963112       -4.5113684786
 C        -5.9162336183        1.4911939503       -5.9687816760
 O        -5.2541887337        2.5068277732       -6.1627185829
 C        -6.4457489493        0.5417487931       -7.1808543345
 C        -6.7319695520       -1.0193806051       -6.8104811332
 O        -5.9892826991       -1.4036871304       -5.9294834527
 C        -7.9718809065       -1.6712709879       -7.4313221122
 C        -7.5530860603        1.2536224221       -7.9700810911
 C        -5.3149975064        0.4655895065       -8.2592485516
 C        -6.5858044468        5.3179137301       -3.5750595329
 C        -7.2471960527        3.6312503129       -1.7595418197
 C       -12.1862117525        8.3531146978       -1.0340680473
 C       -10.3626424182        9.8497585332       -0.2068537050
 C        -9.1275584691        6.6272696284        5.3476829352
 C        -8.2458049897        4.1841838441        5.0326798726
 C       -14.1564952305        1.6222481593        6.3842375764
 C       -12.2170131295       -0.1149851943        6.8263688552
 C       -13.3929082148        0.2063997443       -0.1902677442
 C       -10.9630383508        1.0206574519       -0.6154105067
 H       -11.6709707530        3.4892825005       -2.0951911654
 H       -13.2197012546        3.6814726776       -2.5929615436
 H       -12.7022706653        2.0710716383       -2.6863673017
 H       -10.5440306570        0.1279882141        1.9625874680
 H       -12.3038005161       -0.6304072112        2.2528325407
 H       -10.8876522589        1.5309713299        3.8771368490
 H       -10.8737510390       -0.1767372064        4.1799965711
 H       -12.4040011622        3.6478333425        7.9570293846
 H       -13.1774970447        4.0450084469        6.2417466951
 H       -10.1314024215        4.0325404242        6.7803306083
 H       -10.9984139396        5.4271831405        7.0661702259
 H        -7.8528611577        7.4450629039        2.7278142816
 H        -9.5854879340        7.7225530807        2.9498312923
 H        -8.5875441155        6.1581710709        0.7682074094
 H        -8.2822051648        7.7248294277        0.5970504188
 H       -10.8819445360        8.1348630768       -3.7685565486
 H       -11.2114029957        6.7479650032       -2.8548741298
 H        -8.4861881705        6.8231519945       -4.2364531417
 H        -9.9368938003        5.7845274060       -4.5600536554
 H        -8.5552606572        1.3435987546       -5.0909681949
 H        -8.2970577488        1.0891257752       -3.4235581667
 H        -6.3294774515        0.1801016587       -4.2511157425
 H        -5.7805659529        1.8838371078       -3.9617840641
 H        -8.6437205807       -0.9490381860       -7.7552191119
 H        -8.5150222177       -2.3080762063       -6.8105107256
 H        -7.6258904900       -2.2476183180       -8.2933373426
 H        -7.4718815304        0.9344005380       -9.0346995873
 H        -7.4449640266        2.3677949601       -7.8278894408
 H        -8.5842539918        1.0706580765       -7.6510016301
 H        -5.6715855471        0.0166255272       -9.1791128062
 H        -4.4390058919       -0.0959635020       -7.9117476610
 H        -4.8995791232        1.4382916639       -8.4581289528
 H        -6.4457268408        6.0910807913       -2.8187688429
 H        -6.8405893377        5.8209211905       -4.4819584155
 H        -5.6701655890        4.8358792211       -3.6794803478
 H        -7.4061745339        4.4480782551       -1.0382569958
 H        -6.3183075889        3.0602288220       -1.6675208688
 H        -8.0104309526        2.8075471435       -1.5127248733
 H       -12.4508182994        7.3021035321       -1.1183414442
 H       -12.3356397265        8.6162345949       -2.0996294104
 H       -12.8504335741        8.9227216010       -0.3588639437
 H       -10.7011939648        9.9572747053        0.8329544707
 H       -10.9579530504       10.7024640510       -0.6753913559
 H        -9.2609219535       10.1090107652       -0.1858636262
 H        -9.8506252111        7.3967101545        5.2076386751
 H        -8.0127186668        6.9522993451        5.2547352008
 H        -9.0720825367        6.4731558311        6.3274853172
 H        -7.5936690813        4.5480361874        5.8310160001
 H        -7.7350485835        3.8135299300        4.1083869460
 H        -8.7289391425        3.1665042655        5.3010066557
 H       -14.9892098821        0.8881984602        6.2922381374
 H       -14.5303972824        2.4480259145        5.7625828574
 H       -14.3796337884        1.8290144412        7.4691027947
 H       -11.4827338733       -0.7324278200        6.2766729435
 H       -13.0099630127       -0.8334030150        6.9188112682
 H       -11.7959357619        0.1855126517        7.8408983954
 H       -13.7074131951       -0.3628225729        0.6892794940
 H       -12.9386894167       -0.4466100726       -0.9087111057
 H       -14.3047284696        0.6589517843       -0.7166519950
 H       -10.6773552611        0.0850871532       -0.0434991152
 H       -10.2041762714        1.7985658443       -0.5667037539
 H       -10.9997088277        0.6312975973       -1.6305203248
 Na      -12.1045233465        4.7189787841        1.9510899535
