117

 C       -13.0079148077        2.7112794121       -2.0260260357
 C       -12.8826240098        2.6827420168       -0.5189445826
 O       -13.2019392608        3.6419355986        0.1262296345
 C       -12.2444935956        1.2592182422        0.1082000700
 C       -11.9243667498        1.5344162371        1.6152266696
 O       -12.0298245832        2.5477629631        2.2064347370
 C       -11.5545223324        0.1914497947        2.3704145380
 C       -11.5260490972        0.3116320042        3.9403408063
 C       -12.9261784990        0.7056537850        4.6334043616
 O       -13.9041996847        0.7846081780        3.9360892049
 C       -12.9752709835        1.1649360193        6.1306512636
 C       -11.8047983561        2.3771315314        6.3114480420
 O       -10.7048217714        1.9921905134        6.6119717753
 C       -12.2405790987        3.8471051609        6.4176041608
 C       -11.1073340936        4.9360174044        6.4231836444
 C       -10.7053121745        5.1466650313        4.9280071984
 O       -11.6640688448        5.1635704903        4.1328873400
 C        -9.2234188335        5.5030676571        4.5514210984
 C        -9.2485479091        5.5506556897        2.9112919857
 O        -9.6311367474        4.5553464738        2.3786230705
 C        -8.6921611236        6.8109567665        2.3428689742
 C        -8.8837418858        7.2604306059        0.7602701036
 C       -10.3329539589        7.3736246356        0.3202684269
 O       -11.1320697007        6.5529344769        0.5345111750
 C       -10.6441952492        8.5591053067       -0.6365328197
 C        -9.7743383894        8.1530331788       -1.8608420655
 O        -8.6566004236        8.4935941909       -1.8912357212
 C       -10.3308749613        7.3370509182       -3.0692133351
 C        -9.5325315655        6.1684872034       -3.6650257093
 C        -8.9462291240        5.3216649465       -2.5657395714
 O        -9.2825415144        5.3892151703       -1.4054864807
 C        -7.6996981276        4.2261701793       -3.1121538218
 C        -8.3099891820        3.1650184718       -4.1344548603
 O        -9.1649321696        3.4910929798       -4.9572783547
 C        -7.6931833659        1.6993091637       -4.1154923916
 C        -6.2811626627        1.3272955401       -4.6127272548
 C        -5.8172362951        1.3958016430       -6.1033364441
 O        -5.2014869907        2.3335146603       -6.4767019822
 C        -6.4424920170        0.2714870160       -7.1404100054
 C        -6.8007468167       -1.1512958568       -6.6718372033
 O        -6.0450555835       -1.6918640573       -5.8896605499
 C        -8.0712850645       -1.7832939150       -7.4150578696
 C        -7.6293202434        1.1458432196       -7.6277381716
 C        -5.3619995981        0.0392043655       -8.1533732548
 C        -6.5440536863        4.8481816730       -3.9308525831
 C        -7.1984767370        3.5211347761       -1.7110581824
 C       -12.0871755822        8.8162428919       -1.0856596091
 C       -10.0946573453        9.8458272252        0.0146283199
 C        -8.9604711230        6.8425743169        5.2974613364
 C        -8.1943137297        4.4162241913        4.9548970046
 C       -14.4199881476        1.5468025549        6.4914702388
 C       -12.5909350479       -0.0782073748        6.9618473941
 C       -13.3584148265        0.2187081260       -0.1742342428
 C       -10.8438524744        0.9515534884       -0.6698660653
 H       -12.0740800550        3.1620564666       -2.4183059444
 H       -13.6284853986        3.5365423899       -2.3918041685
 H       -13.4087328770        1.9472949782       -2.5858706129
 H       -10.5456243045        0.1044855278        1.8720084329
 H       -12.3181718021       -0.4873869446        2.0989546957
 H       -10.7121107804        0.9635758685        4.3067866255
 H       -11.3701393891       -0.7652587407        4.4753988884
 H       -12.6516615851        3.7418520721        7.3969220820
 H       -12.9815982263        4.1232105986        5.6967853098
 H       -10.1586855045        4.6094718725        6.8921475102
 H       -11.3458737355        5.9231695371        6.8575234724
 H        -7.6844355614        6.9669462906        2.6419208148
 H        -9.2211209654        7.7087740655        2.8481440686
 H        -8.2499840214        6.6196939585       -0.0139057746
 H        -8.2735210489        8.2397965411        0.8206655702
 H       -10.6487900205        7.9857784289       -3.8962403532
 H       -11.2993751279        6.9135019278       -2.7346454165
 H        -8.7243311123        6.6818662367       -4.2313503750
 H       -10.1439008222        5.5650240759       -4.3697093638
 H        -8.3619896871        0.9547623263       -4.5607806642
 H        -7.4990609827        1.3913094814       -3.0418162430
 H        -6.3274639809        0.2923921105       -4.3913358634
 H        -5.4729964866        1.9522329218       -4.1155098038
 H        -8.9210393575       -1.2021072632       -7.0048286151
 H        -8.3574943904       -2.7878386693       -7.0935726842
 H        -8.0941310384       -1.6954616253       -8.5073161990
 H        -8.2908246998        0.5825280167       -8.2898161613
 H        -7.3263854747        1.9461325839       -8.1715545572
 H        -8.1770875661        1.4660181744       -6.7665658366
 H        -5.5849209728        0.6477006430       -9.1060148514
 H        -5.1665982283       -0.9583435488       -8.3854134047
 H        -4.4222418518        0.4096181725       -7.7952862156
 H        -6.5818147130        5.9384647916       -3.8132176601
 H        -6.6341896799        4.7982485180       -5.0273541116
 H        -5.5706398830        4.4017290534       -3.5680148102
 H        -6.3208544092        4.0279771856       -1.3056324023
 H        -6.9460466274        2.4769983339       -1.9090445504
 H        -7.8899491914        3.4305884438       -0.9453494527
 H       -12.6416455020        7.9946609342       -1.5418130866
 H       -12.1554975376        9.6665099872       -1.7595173809
 H       -12.4974181718        9.1625369844       -0.1486304781
 H       -10.8017288666       10.6171079411        0.2786285763
 H        -9.5447615983       10.4143725932       -0.7059865298
 H        -9.5648864777        9.6714453139        0.8941143238
 H        -9.8602208187        7.4208635552        5.0350881392
 H        -8.1270797293        7.4531919260        4.9962545604
 H        -8.7223229503        6.8696934315        6.4501043273
 H        -7.2384835774        4.9185314257        4.8850301879
 H        -8.2802524366        3.5809256164        4.3060704328
 H        -8.3089085308        4.0754448072        5.9224047020
 H       -15.0760437264        0.7218085519        6.3510826347
 H       -14.9138872844        2.2913622735        5.8719381915
 H       -14.6543204258        1.7315406442        7.4995056501
 H       -11.5525074196       -0.2288623586        6.9582891058
 H       -12.9336823784       -1.0302514110        6.5542244724
 H       -12.8747352888        0.0153344649        7.9559718131
 H       -13.5904660128       -0.2129831900        0.8009264388
 H       -13.0837373735       -0.6497584290       -0.8029235068
 H       -14.2083730628        0.6403562944       -0.5815274801
 H       -10.4489855868       -0.0547330901       -0.5894101588
 H       -10.1616350685        1.7841802349       -0.4912537276
 H       -11.0355401117        0.9381693413       -1.7474563262
 Na      -11.5928956473        4.7618197246        1.9568732053
