117

 C       -13.2136409186        2.5333837931       -1.9168427357
 C       -12.7821991883        2.7147970299       -0.4828023225
 O       -12.9717316869        3.6894682729        0.2194447508
 C       -12.2074894385        1.3904806617        0.1183493192
 C       -11.9210104568        1.4466493352        1.6362694344
 O       -11.8760666168        2.4959850815        2.1963661943
 C       -11.6095037641        0.1206247377        2.5178572137
 C       -11.6773014913        0.2564634289        4.0344786338
 C       -12.9024975908        0.9277406228        4.5415305407
 O       -13.8954323673        1.1908371499        3.9067541405
 C       -12.9895478690        1.2021876824        6.1860495732
 C       -12.0189608246        2.2848125312        6.4848231178
 O       -10.8111750803        2.0578182411        6.4781199404
 C       -12.4588830347        3.8153637450        6.3570865565
 C       -11.2783315104        4.7746570052        6.4035084159
 C       -10.7263397143        5.2529202753        5.0118233871
 O       -11.5321339316        5.0610607555        4.0933676259
 C        -9.3028542362        5.7682240972        4.5294425292
 C        -9.2119595952        5.6298305610        3.0244878448
 O        -9.5710304832        4.5584595397        2.5300472879
 C        -8.6622652051        6.8600755621        2.3271068044
 C        -8.8417446072        7.1578263462        0.6933408463
 C       -10.2462692801        7.2926813450        0.3174836039
 O       -11.2484920902        6.5112659014        0.5301411637
 C       -10.6165760495        8.6929638369       -0.6207936929
 C        -9.7129385873        8.2179429009       -1.9106235591
 O        -8.5346146891        8.5573833717       -1.9062031721
 C       -10.3794560493        7.2508729057       -2.9876213444
 C        -9.3952921566        6.1228384051       -3.6283586330
 C        -8.7727308042        5.1398797589       -2.6438301435
 O        -9.2116050030        5.1924815815       -1.5202392773
 C        -7.7216603399        4.1495607611       -3.1085916666
 C        -8.2464296438        3.1158998642       -4.1331372690
 O        -9.0889691016        3.4068178675       -4.9720064013
 C        -7.6847180583        1.6046687936       -4.1520368619
 C        -6.2099006398        1.3671070918       -4.5087763806
 C        -5.9206306725        1.3572015892       -6.1365486699
 O        -5.1232479341        2.1361168403       -6.6071876404
 C        -6.4857404973        0.3137502730       -7.0664076407
 C        -6.9121250013       -1.1496112557       -6.5459061651
 O        -6.2027113473       -1.8063522611       -5.7765580671
 C        -8.0204118058       -1.8585609611       -7.2067438031
 C        -7.7664416527        1.0402325272       -7.6701813437
 C        -5.3589966425        0.0595929991       -8.1771836591
 C        -6.5924718279        4.6509242807       -3.9219373000
 C        -7.1275186853        3.6859029593       -1.6639663851
 C       -12.1477169202        8.9669763111       -0.9127595979
 C        -9.9121541643        9.9024252437       -0.0155021756
 C        -8.7904445158        7.0750309630        5.0267682441
 C        -8.3564399416        4.4800363455        4.8375658788
 C       -14.4239417735        1.6710113476        6.4808252023
 C       -12.6957894169       -0.0683581196        7.0549091964
 C       -13.2969183921        0.3376102504       -0.1844515961
 C       -10.9336351476        0.9795182578       -0.6095761882
 H       -12.5631790938        2.7719568417       -2.6593367957
 H       -14.0286398298        3.2495813213       -2.2340396697
 H       -13.7736870335        1.6755318029       -2.1639552965
 H       -10.5956827228        0.0632267596        2.1616715926
 H       -12.2182305026       -0.6391228385        2.1955748273
 H       -10.7571415107        0.7495141556        4.4735463378
 H       -11.7100927186       -0.6911140211        4.4991017105
 H       -13.2482190820        4.1209495597        6.9401749678
 H       -12.6931681448        3.7910062358        5.3265285935
 H       -10.3886796035        4.3180399207        6.8837226299
 H       -11.4611032987        5.7205794987        6.9433340852
 H        -7.6399582915        6.6188043337        2.3776278349
 H        -8.6931156638        7.8609938430        2.8545175200
 H        -8.4033705258        6.2885532192        0.1127663590
 H        -8.1939332489        8.0063281126        0.4899310496
 H       -10.9474432757        7.6810544557       -3.8749601327
 H       -11.1399296214        6.8008592739       -2.4161024780
 H        -8.7744047320        6.7748598235       -4.2383293994
 H        -9.9445586317        5.4989789434       -4.2732466851
 H        -8.1684884787        1.1879672702       -5.0414732661
 H        -7.9347855552        1.0470662081       -3.1654750504
 H        -5.9706015701        0.2765467989       -4.1957033998
 H        -5.5365996844        2.1462465109       -4.2400568533
 H        -8.9595049942       -1.6970807336       -6.6276502467
 H        -7.9855256588       -2.9712761623       -7.2753064846
 H        -8.1679049657       -1.3788545907       -8.2816924506
 H        -8.4640256076        0.2644175752       -8.0645936323
 H        -7.5511731849        1.4830547733       -8.6269142578
 H        -8.2942251913        1.6904232567       -6.9741279202
 H        -5.2828656352        0.9577974671       -8.8825476564
 H        -5.6941558648       -0.7876743277       -8.7660266321
 H        -4.3645302617       -0.2078454661       -7.8107289493
 H        -6.4670313916        5.7592324379       -3.8850225012
 H        -6.7405863225        4.5887528494       -5.0379174821
 H        -5.7087888413        4.0566575826       -3.6126253014
 H        -6.2759743644        4.3519340498       -1.6336697649
 H        -6.6694557023        2.6746798113       -1.8230089198
 H        -7.5967136216        3.7838811295       -0.7211945648
 H       -12.5606234008        8.1068492652       -1.3731997468
 H       -12.4422761294        9.8775270270       -1.4451072556
 H       -12.5517586021        9.0670229501        0.0931143828
 H       -10.2568735673       10.8682446869       -0.2556138425
 H        -8.8702276313       10.0922076953       -0.4104867463
 H        -9.9906123820        9.8378496277        1.0228168115
 H        -9.4985478614        7.8494019083        4.8938052221
 H        -7.8035271054        7.5270839067        4.4636577337
 H        -8.4156387117        7.0650928237        5.9925425695
 H        -7.6065778654        4.4803943769        4.1112297989
 H        -9.0007543811        3.6171116351        4.6845899345
 H        -7.9185703213        4.4879561598        5.8295408883
 H       -15.1706320794        0.9362016705        6.3154122729
 H       -14.8002075127        2.4934114180        5.8868146088
 H       -14.5826886865        1.9324435450        7.5025316199
 H       -11.7065813619       -0.0885730441        7.4351444220
 H       -12.7158675575       -0.9817980281        6.4816471792
 H       -13.3429261360       -0.1923172849        7.9505377354
 H       -13.7218199146       -0.0560949576        0.7470259597
 H       -13.0693018533       -0.5386895664       -0.7858434601
 H       -14.1424126139        0.8599318820       -0.6867857818
 H       -10.5813994422       -0.0699000196       -0.5452222647
 H       -10.2837607826        1.7630560915       -0.4021918439
 H       -11.1027514086        0.9979810537       -1.6989566419
 Na      -11.5860531954        4.7826613579        1.6407830786
