117

 C       -14.2775741113        2.6057200040       -1.3333350988
 C       -13.1713434119        2.6395796031       -0.3246066056
 O       -12.7559336393        3.7379514527        0.0587125577
 C       -12.5679952144        1.1734576164        0.2098684780
 C       -11.9016607910        1.3817614354        1.6079773993
 O       -10.7738560621        1.9243443451        1.6689176411
 C       -12.5220384878        0.7295831872        2.9027361690
 C       -12.3448489124        1.5930072682        4.1986101901
 C       -13.6972600520        2.2818206938        4.6065455333
 O       -14.6184581384        2.6100368228        3.8699421351
 C       -13.7907730969        2.7918448832        6.1812935884
 C       -12.7949629165        3.9666961322        6.0714988990
 O       -11.6026105634        3.7104778356        6.1895887484
 C       -13.2204513828        5.3843395170        5.7494349016
 C       -12.0042131052        6.2859156435        5.3903733476
 C       -10.9648264804        5.5504398972        4.5664378481
 O       -11.3928677769        4.8328673969        3.6430427751
 C        -9.3813380546        5.6525902767        4.6541291259
 C        -8.9109490622        5.7987704009        3.1887577383
 O        -8.6433125563        4.7516902992        2.4821977613
 C        -8.6264799552        7.1262810675        2.5901797889
 C        -8.0895258200        7.0106257504        1.1613514642
 C        -9.3057976504        7.1055994586        0.2532085121
 O       -10.2352998023        6.3380696030        0.4687102750
 C        -9.6357597375        8.1458582251       -0.8852243572
 C        -9.1725346343        7.3776613723       -2.2346949840
 O        -8.0793978859        7.6889852747       -2.7647841560
 C       -10.0268895947        6.2004759385       -2.8080825929
 C        -9.0479003166        5.3289171365       -3.6120721520
 C        -7.9408317067        4.7518997769       -2.8392410726
 O        -7.9302014138        4.9185871378       -1.6578931022
 C        -6.8454322039        4.0049019148       -3.6074041143
 C        -7.4818932800        2.6894896557       -4.1447034505
 O        -8.5607616170        2.8888126121       -4.7216409642
 C        -7.0652767369        1.2510137318       -3.7608326737
 C        -5.8697283924        0.8285736528       -4.6053660485
 C        -6.0650394444        0.4565853029       -6.0993985113
 O        -5.3267052296        0.9144930821       -6.9311204803
 C        -7.2095042449       -0.5771104491       -6.6194075987
 C        -7.8751700579       -1.7671871081       -5.6546945497
 O        -7.7808570958       -1.6602953621       -4.4225949968
 C        -8.7369968803       -2.8921780740       -6.3030692801
 C        -8.2894767618        0.3377759772       -7.1519646379
 C        -6.6670292951       -1.2967703538       -7.8965992925
 C        -6.4000096475        4.8767391808       -4.6953748294
 C        -5.6422011088        3.8099533736       -2.5330609018
 C       -11.1949725573        8.1688832373       -1.0546589161
 C        -9.1390395328        9.5825273860       -0.6819842406
 C        -8.8345220115        6.8199057855        5.4535075277
 C        -8.7993231575        4.3480117214        5.4829320427
 C       -15.2613970672        3.1651040390        6.4792721643
 C       -13.3487107236        1.9629585965        7.3715244829
 C       -13.5914777210        0.0576774975        0.1462806305
 C       -11.3232075681        0.9273070715       -0.7559267289
 H       -13.9620849529        2.6769827431       -2.3527205912
 H       -14.7616393329        3.6410106478       -1.2550239561
 H       -15.0554906678        1.9478676577       -1.3358857091
 H       -11.8949661015       -0.1640027000        2.9138883669
 H       -13.4770655586        0.2869634581        2.7916676631
 H       -11.4864659866        2.2147363656        4.1833865643
 H       -12.1827102014        0.7962627202        5.0338212872
 H       -13.8385833243        5.6862661021        6.6032627808
 H       -13.9550127765        5.3369476300        4.9475283604
 H       -11.4930800217        6.7078934576        6.2733379781
 H       -12.4201079951        7.1593115248        4.8229659640
 H        -7.8821800811        7.6432869621        3.2902848563
 H        -9.5778692550        7.5396864519        2.7797126755
 H        -7.6916252365        5.8727411046        1.1611214328
 H        -7.2082676664        7.6558067991        0.8219076197
 H       -10.8107439869        6.6090609951       -3.4072527237
 H       -10.3917319434        5.4956919161       -1.9895130425
 H        -8.6604125615        5.9392881101       -4.4196680006
 H        -9.6246804192        4.5454023799       -4.2051508732
 H        -8.0008962146        0.6828215148       -3.9850263173
 H        -6.9289854910        0.9445184860       -2.7371357317
 H        -5.4167819775       -0.0024678445       -4.1017667916
 H        -4.9062123141        1.5174379386       -4.5275913833
 H        -8.9498231823       -3.6425771707       -5.6127549216
 H        -8.2377257506       -3.2569646811       -7.1198252585
 H        -9.6073629639       -2.4536601167       -6.8298659866
 H        -9.0210047073        0.5975209669       -6.3855094994
 H        -8.7514014814       -0.0966798844       -7.9545056043
 H        -7.9840508365        1.2980014749       -7.4883759535
 H        -5.5965843344       -0.8778030098       -8.0624859858
 H        -7.2073177261       -1.2798598344       -8.7880118846
 H        -6.5447176934       -2.2748836844       -7.5636890198
 H        -6.0723690538        5.7841583342       -4.2954406804
 H        -7.2413080356        5.0849089912       -5.2844970926
 H        -5.6030141428        4.4817535292       -5.2920619367
 H        -4.7451111358        3.7466112084       -3.1641227026
 H        -5.8434449523        2.8723224538       -1.9877147585
 H        -5.5345000755        4.5372129291       -1.8226972713
 H       -11.6420293192        7.2466858261       -0.6318237967
 H       -11.4592840780        8.1509103410       -2.0998441710
 H       -11.4816002860        9.0906194665       -0.5633200408
 H        -9.5949809037        9.9983063163        0.2235350950
 H        -9.1412767539       10.2336860735       -1.5466643854
 H        -8.1219964765        9.5800887393       -0.3706684181
 H        -9.0415678112        7.7587214623        5.0059398618
 H        -7.6754428206        6.6232920971        5.6786252130
 H        -9.1603447597        6.8148623574        6.4579903041
 H        -7.7033186830        4.5308777447        5.5915557233
 H        -9.1174772698        3.3658087112        5.0031336347
 H        -9.2315540624        4.4751104893        6.4925903306
 H       -15.8641487959        2.3310776854        6.7958511212
 H       -15.8539747021        3.5670610078        5.5550160007
 H       -15.3147046708        3.8313394096        7.3404913349
 H       -12.4158080463        1.4516055344        7.1558943929
 H       -14.0940180902        1.1548085263        7.7473832050
 H       -13.2144767946        2.6998755856        8.1556809203
 H       -14.2620990690        0.1631317137        1.0061702796
 H       -13.1542375483       -0.9713328387        0.1670234927
 H       -14.2396760780        0.0649043258       -0.7189446125
 H       -10.9846909140       -0.0216953590       -0.3156550115
 H       -10.5604851750        1.7474688478       -0.6516516722
 H       -11.5623758834        0.9063990360       -1.8433561684
 Na      -10.8636685079        4.3841187372        1.4834409883
