117

 C       -14.2952251722        2.7325790451       -1.2528392477
 C       -13.1915831718        2.6776517787       -0.2467434204
 O       -12.6342316651        3.7351668273        0.1578947927
 C       -12.5857600245        1.1912509983        0.1617011764
 C       -11.9320632759        1.3881216937        1.6889914103
 O       -10.8190153352        1.8312633404        1.6396828029
 C       -12.6384780348        0.8548618133        2.9938633143
 C       -12.4987817458        1.7115489142        4.3284797537
 C       -13.8234885103        2.3897592211        4.7413456705
 O       -14.6316231207        2.6799921324        3.9023354641
 C       -13.8730465599        2.8733753377        6.2706057018
 C       -12.8567973164        4.0920683686        6.1256054859
 O       -11.6524391833        3.8387599609        6.0687341222
 C       -13.3570205078        5.5045530994        5.7916341807
 C       -12.2194052489        6.3389944144        5.2738213543
 C       -11.0278286059        5.5319516013        4.5222482218
 O       -11.4825984835        4.9842766274        3.5441639343
 C        -9.3018025026        5.6019737598        4.7090164091
 C        -8.6516991986        5.6330359659        3.2280708395
 O        -8.5963345623        4.7481180528        2.4262716861
 C        -8.3586750063        7.1483386758        2.5978153154
 C        -8.0444171436        7.1743719030        1.0932415911
 C        -9.3585206456        7.0653429011        0.1636669033
 O       -10.0516678645        6.1133327503        0.2721465832
 C        -9.7556401421        8.0684461188       -0.9869233938
 C        -9.0411098271        7.3004940219       -2.3110515783
 O        -7.9577422332        7.5262433558       -2.7944883974
 C        -9.9717020321        6.2389666902       -2.7380244077
 C        -9.2117290217        5.2778237955       -3.6177058472
 C        -7.8417276002        4.7189941127       -2.7753565203
 O        -7.8113347127        4.9293875656       -1.5900833580
 C        -6.7360426265        3.9972905901       -3.6774960068
 C        -7.5599813232        2.6575691961       -4.1046165311
 O        -8.5976342649        2.9041859852       -4.7100804564
 C        -7.0970051497        1.2934024222       -3.7502054381
 C        -5.8416905017        0.5766504031       -4.5652151104
 C        -6.1278436532        0.2349872269       -6.0080825262
 O        -5.4695025455        0.8546948544       -6.8820933133
 C        -7.2745131307       -0.6419490280       -6.5823489248
 C        -7.9107839973       -1.6271774774       -5.6258783900
 O        -7.7614944930       -1.5270261293       -4.4308220146
 C        -8.6881047467       -2.8483503355       -6.0931705207
 C        -8.3500671756        0.4488607840       -7.0541549513
 C        -6.6541323920       -1.4316400216       -7.8920448770
 C        -6.2108588629        4.9552644848       -4.8115424265
 C        -5.4208214690        3.4600033968       -2.8247086562
 C       -11.3286438978        8.1386162661       -1.0889141195
 C        -9.1805210684        9.4472516742       -0.7278601239
 C        -8.7446950935        6.8397089562        5.4843581716
 C        -8.8043755422        4.3311045378        5.5091652922
 C       -15.3733510666        3.2743568076        6.4204696494
 C       -13.5039620327        1.9243183584        7.4431693322
 C       -13.4548234358       -0.0372890354        0.1253500510
 C       -11.4471083096        0.9379556532       -0.8850617317
 H       -14.1237833017        3.1904804262       -2.1709621514
 H       -15.2068718993        3.2544656362       -0.9163692799
 H       -14.7232212855        1.6499769054       -1.5180785130
 H       -12.0384712967       -0.1035160646        3.1344213764
 H       -13.5835029647        0.5328560454        2.7992473710
 H       -11.8327182577        2.5570432991        4.1468266680
 H       -12.0777891668        1.0585991590        5.0250899016
 H       -13.7686961689        5.8028485648        6.6901335407
 H       -14.1864991461        5.4964433477        5.1356045474
 H       -11.8598186511        7.0663284508        6.0363578865
 H       -12.6941346131        6.9340373832        4.4698399856
 H        -7.5199249718        7.6449962804        3.1059904569
 H        -9.2980942081        7.6405488011        2.9075460580
 H        -7.4570042728        6.3089912241        0.7967182489
 H        -7.4178644098        8.0436847022        0.8394580916
 H       -10.8946485872        6.6898231177       -3.0965834120
 H       -10.1305518775        5.6000652513       -1.8276505229
 H        -9.0370429293        5.7058397474       -4.5988277069
 H        -9.8587442419        4.4605847928       -3.8415897164
 H        -8.0215167412        0.6924419662       -3.6052744724
 H        -6.7421102908        1.1581647455       -2.6784371082
 H        -5.5614372437       -0.2705371172       -3.9205715686
 H        -4.8802592776        1.1509406243       -4.5145064790
 H        -8.5232254928       -3.6079553807       -5.3319166796
 H        -8.3736911104       -3.2002690355       -7.1200558411
 H        -9.7172566708       -2.5885166498       -6.3310981987
 H        -9.1050389526        0.5713207940       -6.3383226508
 H        -8.8312327783        0.3115174902       -8.0827148906
 H        -7.9161072362        1.3791454775       -7.1488695958
 H        -5.8269432184       -0.8790563735       -8.2403598700
 H        -7.3434037393       -1.6650637143       -8.6970830805
 H        -6.2741009749       -2.3780463227       -7.4832784342
 H        -5.9962422166        5.8724173451       -4.3497948744
 H        -7.0484815633        5.1609577971       -5.4395165664
 H        -5.3615869734        4.6033229453       -5.3132550432
 H        -5.0734009827        2.7873587321       -3.4910976401
 H        -5.6673752536        3.1389943357       -1.8477288585
 H        -4.5566534779        4.2093187995       -2.6946328846
 H       -11.5773319063        7.0819097802       -1.0489776585
 H       -11.6503620312        8.4952745681       -2.0921820624
 H       -11.7090467695        8.7687871402       -0.2702318666
 H        -9.5829803721        9.8986863730        0.1841270849
 H        -9.1901100307       10.1897650323       -1.5809351266
 H        -8.1587598933        9.3466425447       -0.5386381782
 H        -8.9456366995        7.8197105016        4.9703987869
 H        -7.8230934936        6.7154846341        5.8207418693
 H        -9.2703591536        6.8306314565        6.3843350573
 H        -7.7998992593        4.4240869300        5.7679095297
 H        -9.1198443040        3.5781265316        4.8104013405
 H        -9.4068201102        4.2245837483        6.4237078768
 H       -15.9688500230        2.4686213581        6.7316559569
 H       -15.8835977780        3.6607711737        5.5409875521
 H       -15.3847293232        3.9175093467        7.2762325263
 H       -12.4971397707        1.5917054682        7.3554195284
 H       -14.1252546863        1.0620142590        7.5042907649
 H       -13.6482959632        2.5422993366        8.3420569005
 H       -14.1511162089       -0.1502226741        0.9187105887
 H       -12.7227313918       -0.8025727553        0.3228376412
 H       -13.9664589081       -0.3298863507       -0.7773103286
 H       -11.1292114359       -0.1310292982       -0.7162850463
 H       -10.7112293071        1.6597570282       -0.6104008470
 H       -11.6542151809        1.1660398516       -1.9719501467
 Na      -10.7106096129        4.5120594852        1.4774598289
