117

 C       -14.3308172278        2.8093966482       -1.0662738043
 C       -13.1797357221        2.5775734793       -0.1289663981
 O       -12.5660686675        3.5374034466        0.2320099758
 C       -12.4605596323        1.2088797958        0.2891764543
 C       -11.8616885169        1.4168207808        1.6722435188
 O       -10.8272262755        1.9692313355        1.8559050496
 C       -12.7228633820        0.9116955940        2.9209748829
 C       -12.4835710953        1.7125033166        4.2216565427
 C       -13.7900351674        2.4056474728        4.7637275110
 O       -14.6887147833        2.7039191657        4.0226392796
 C       -13.9932116012        3.0362230303        6.3083157393
 C       -12.9713069596        4.1713976233        6.1851791266
 O       -11.7915609594        3.9073857545        6.0636732537
 C       -13.3413761103        5.6641645368        5.8097761542
 C       -12.0829693410        6.4832017044        5.2409132599
 C       -11.0400970815        5.6532437809        4.3629794610
 O       -11.4497745893        5.0297113335        3.4172899222
 C        -9.4015458215        5.6371239368        4.6377423219
 C        -8.7251201389        5.6885062149        3.1622941143
 O        -8.5196870064        4.6759783975        2.6719742960
 C        -8.1674421838        7.0898026207        2.5108423964
 C        -8.1664638711        7.2923664414        1.0113500188
 C        -9.3238873770        6.9908120018        0.1285139039
 O        -9.9387087674        5.9060429503        0.0995599645
 C        -9.6319195662        7.9672552885       -1.0137011843
 C        -9.0742129838        7.3371226513       -2.2456352523
 O        -7.9961002201        7.5998665059       -2.5923399614
 C        -9.8914293569        6.0759896549       -2.7787710580
 C        -9.0650406592        4.9959016669       -3.4839592256
 C        -7.7646713541        4.7320935740       -2.8479020601
 O        -7.6107527612        4.8674167611       -1.6262825261
 C        -6.7125400535        3.9158191604       -3.7421367080
 C        -7.4360301298        2.6728597266       -4.3136237049
 O        -8.5356362236        2.7112551703       -4.7820621855
 C        -7.0763611477        1.2669279897       -3.8120994920
 C        -5.9982015774        0.3769424877       -4.4787124546
 C        -6.2282040747        0.2531996589       -6.0211120867
 O        -5.4415201852        0.8129178490       -6.7370129643
 C        -7.3461746857       -0.6835652443       -6.5657664676
 C        -7.8873338135       -1.6020934054       -5.5335774190
 O        -7.7626623663       -1.3346629098       -4.3724256125
 C        -8.7061320642       -2.8599233907       -5.9740777821
 C        -8.4697634287        0.3794713143       -7.0050485503
 C        -6.7404081032       -1.4547130507       -7.8064029455
 C        -6.1493415188        4.8354140967       -4.8513125181
 C        -5.4158591045        3.4219096719       -2.9931745330
 C       -11.2332657793        8.1612070138       -1.1006711594
 C        -9.0920209084        9.4946001624       -0.8518181932
 C        -8.9372011400        6.8953909087        5.5887929853
 C        -8.9120777358        4.3274601391        5.2881059701
 C       -15.5026163581        3.5742333978        6.4600984081
 C       -13.5777350788        1.9323465872        7.2600971249
 C       -13.5251883191       -0.0037517218        0.1382756037
 C       -11.5171461671        1.0920849967       -0.9064415722
 H       -14.2400873282        3.7490189469       -1.7320031142
 H       -15.3363068295        2.7935420318       -0.7241453444
 H       -14.3498201670        1.9526569435       -1.7934628353
 H       -12.7605182379       -0.1369251173        3.2017981238
 H       -13.8023301060        1.1618115900        2.5140060796
 H       -11.9836869058        2.6938711861        3.9860664560
 H       -11.9467929793        1.0436307233        4.8166273573
 H       -13.7860846579        6.1029174015        6.6935060543
 H       -14.1373677125        5.6496625369        5.0902159710
 H       -11.5785471535        6.9342799692        6.0968589545
 H       -12.5235218709        7.2768893734        4.6472652751
 H        -7.1484814840        7.0001484857        2.7349917296
 H        -8.5379066394        8.0193890773        3.0738097604
 H        -7.4122866233        6.9824982428        0.3936789622
 H        -8.0465519398        8.3193062858        0.9599158611
 H       -10.5370496671        6.5245471985       -3.5950207146
 H       -10.5036023152        5.6502417571       -2.0443268347
 H        -9.0120217074        5.3383331222       -4.5230859834
 H        -9.5196322421        4.0632754747       -3.5899009729
 H        -8.0750389944        0.8459379044       -3.6435255207
 H        -6.7934730260        1.2319937094       -2.7218172925
 H        -5.8995512666       -0.5661090809       -3.8627628472
 H        -5.0766353148        0.7714710027       -4.3519221786
 H        -8.3986119860       -3.7661913803       -5.3132361900
 H        -8.7182899590       -3.1241446487       -7.0822311093
 H        -9.7411036075       -2.5595239465       -5.9125296082
 H        -9.0926974336        0.5142792139       -6.1037648064
 H        -9.1594976481        0.3184696710       -7.8733177856
 H        -7.9460656153        1.3918186916       -7.1935589317
 H        -6.3729676446       -0.7996789618       -8.5113142128
 H        -7.5823052551       -2.0549274400       -8.2318816469
 H        -5.9265514694       -2.1587437489       -7.4810189329
 H        -5.8853529187        5.8522560667       -4.4631725113
 H        -6.9683958095        4.9658525471       -5.5666531144
 H        -5.2964089275        4.3416165685       -5.2959214081
 H        -5.1041455527        2.3735409669       -3.3449842395
 H        -5.3774968156        3.7464550935       -1.9749546553
 H        -4.6484652596        4.0829836197       -3.4332246463
 H       -11.5926622147        7.2444857908       -1.4968559433
 H       -11.4330813603        8.9404118164       -1.8691426383
 H       -11.6178636667        8.4610085737       -0.1177810010
 H        -9.3962167895        9.9636100352        0.0920758558
 H        -9.5934449185       10.0696640445       -1.6215751523
 H        -7.9744131748        9.7295819381       -1.0483076440
 H        -9.3920404089        7.7695162024        5.1825048652
 H        -7.8867815289        7.0151864089        5.7850560393
 H        -9.3858087586        6.6991376451        6.5832040477
 H        -7.8783338413        4.3562895376        5.5091258747
 H        -9.2704591766        3.6519549321        4.6188269438
 H        -9.4498937919        4.2311112666        6.1765918627
 H       -16.2007871130        2.7357437082        6.5883737033
 H       -15.8335589567        4.0841638100        5.6449985833
 H       -15.5160783879        4.0937282378        7.4228542332
 H       -12.4871212326        1.8584955335        7.2400687948
 H       -13.9483287291        1.0594199049        6.8841614392
 H       -13.9544143705        2.1116307004        8.2431674844
 H       -14.5000966735       -0.0491235813        0.5613195162
 H       -13.0412695236       -0.8319756764        0.6131667723
 H       -13.6094456838       -0.2335640907       -0.9132851084
 H       -11.2262706165        0.0203710082       -1.0403173393
 H       -10.7496690719        1.8625249087       -0.8267898433
 H       -12.0708610321        1.4020223141       -1.8116090623
 Na      -10.6276541746        4.3392528425        1.4765754876
