117

 C       -14.6017325349        2.9762831260       -0.4748107715
 C       -13.2008516013        2.7984597720        0.0437967971
 O       -12.6104584897        3.8337269504        0.4323152329
 C       -12.5356691457        1.4467802791        0.3905404016
 C       -11.9808419605        1.3783646837        1.9995978025
 O       -10.8525887105        1.5970368182        2.2731692646
 C       -13.1538067532        1.0822046468        2.8077770038
 C       -13.0606816392        1.9477791257        4.0922982417
 C       -14.2676464711        2.6915137937        4.5315534278
 O       -15.2999606395        2.8300107626        3.9624782781
 C       -14.1295674266        3.3253689438        5.9850162283
 C       -12.9464321507        4.3440630445        6.0257378145
 O       -11.9036326990        4.0958742472        6.6032277750
 C       -13.1896985413        5.7704509051        5.4090781098
 C       -11.8943872905        6.6202091887        5.3361564028
 C       -11.0292016599        5.8362831449        4.2150289775
 O       -11.5965606775        5.4236038457        3.2418688264
 C        -9.4756693469        5.7617881757        4.4097070056
 C        -8.7923294556        5.7479220629        3.0087706200
 O        -8.5382098124        4.7948697986        2.3446280970
 C        -8.1000453109        7.1918103454        2.5208463544
 C        -7.9068102895        7.2627424761        1.0258977343
 C        -9.1258815686        6.9060401815        0.2755665127
 O        -9.9171379616        6.0136562740        0.4422337550
 C        -9.4704731013        7.8717245309       -0.9537467823
 C        -8.9571491280        7.2069590896       -2.3658422305
 O        -7.9084743933        7.5403793676       -2.7304365446
 C        -9.7842207439        5.9191160854       -2.8409104749
 C        -8.9241325882        4.8529367992       -3.5201403699
 C        -7.4735105496        4.6636167487       -2.8982134237
 O        -7.2220180500        4.8537789752       -1.7116281039
 C        -6.4102010535        3.8487194179       -3.9187817478
 C        -7.2551566957        2.4848932190       -4.2552865014
 O        -7.7492965639        2.4080881278       -5.3443240767
 C        -6.9808969081        1.1802535328       -3.4905777868
 C        -5.9918260918        0.2474017982       -4.3382713988
 C        -6.3853097524        0.1251134678       -5.8141598868
 O        -5.6146641251        0.5456394044       -6.6850899598
 C        -7.5474103488       -0.8060052241       -6.3142920290
 C        -8.1092494843       -1.7922636141       -5.3401486091
 O        -8.2328178356       -1.5459538242       -4.1778664785
 C        -8.8486759837       -3.0268839707       -6.0040362023
 C        -8.7845248537        0.1092965140       -6.6730803345
 C        -6.8950083661       -1.4823210703       -7.5468574857
 C        -6.2101698923        4.4984015640       -5.4347077624
 C        -5.0164640710        3.4973763964       -3.3274419226
 C       -11.0720787658        7.9873996793       -1.1283232805
 C        -9.0399762493        9.3530077256       -0.8577287478
 C        -8.9391726106        6.9469317760        5.1787305452
 C        -9.3022454479        4.4410202188        5.2501416050
 C       -15.4126207424        4.1537684877        6.2672847680
 C       -13.7107917953        2.1793265241        7.0437841493
 C       -13.3319324245        0.1300547495        0.1188929882
 C       -11.0770789867        1.0738010180       -0.3571856929
 H       -15.1004525018        3.8653426056        0.0094754507
 H       -15.2360324037        2.1633676678       -0.4353984338
 H       -14.6843937497        3.2450853411       -1.5905503518
 H       -13.1655529711       -0.0132344402        2.8300499471
 H       -13.9322505241        1.4179384218        2.2527543229
 H       -12.3985897635        2.7498657976        3.7460915700
 H       -12.7792737995        1.4243320932        4.9183141688
 H       -13.7907094110        6.2053822424        6.1804613303
 H       -13.8051666416        5.7400037265        4.5001408554
 H       -11.4943314271        6.7536414827        6.3785669432
 H       -12.1968729988        7.5986343629        4.8828029512
 H        -7.1649405327        7.4448617234        3.0196592593
 H        -8.8820686716        7.9580319754        2.7571281102
 H        -7.1068057355        6.8141437295        0.3994741716
 H        -7.5901080331        8.3551450413        0.8598919868
 H       -10.5170750435        6.1573938031       -3.6165808277
 H       -10.3288904167        5.4860353969       -1.9703446456
 H        -8.8311331750        5.2957189094       -4.5550977971
 H        -9.4550735909        3.9029633026       -3.6839206161
 H        -7.9227645925        0.6251943957       -3.3118949685
 H        -6.6614326741        1.5376927918       -2.4527381719
 H        -5.6995597156       -0.8207656382       -4.0207034153
 H        -5.0646824357        0.8055818278       -4.4321337739
 H        -8.0432635931       -3.7047762062       -6.2774679372
 H        -9.3688842641       -2.7890825053       -6.9299496651
 H        -9.5242953167       -3.4372073958       -5.3643875418
 H        -8.9902869220        0.8639182875       -6.0288721408
 H        -9.7310615603       -0.4369624252       -6.5639062764
 H        -8.7943607783        0.3274610644       -7.6839569503
 H        -6.5790746696       -0.7573255145       -8.1530157735
 H        -7.6192450271       -2.1223263728       -8.0714993265
 H        -5.9996830323       -2.0542551697       -7.2314301265
 H        -5.7504511775        5.4283041769       -5.1419185510
 H        -7.0733690751        4.7220144820       -6.0488402796
 H        -5.4839254972        3.9215996101       -5.9276294164
 H        -4.9926181504        2.4156554597       -3.3582806825
 H        -4.8424748358        3.9303274467       -2.4272339549
 H        -4.2446418112        3.8770619212       -4.0242379666
 H       -11.5295788147        7.0200854603       -1.1695644977
 H       -11.1881210636        8.5863970718       -2.0411424322
 H       -11.4948343481        8.5817221653       -0.3113610767
 H        -9.6353834598        9.8134728796       -0.1383761294
 H        -9.4029914562        9.9041756928       -1.7126010128
 H        -8.0111483449        9.6433916387       -0.7506688922
 H        -9.2336419468        7.9180848387        4.7310236933
 H        -7.9142699026        6.8934491099        5.0167334121
 H        -9.2510099880        6.9070271813        6.2205603221
 H        -8.2734643248        4.0799399733        4.9284245077
 H       -10.1369226472        3.7426651757        4.9839754666
 H        -9.2619623752        4.6836368412        6.3591956961
 H       -16.3037263032        3.4595262008        6.1547317810
 H       -15.4899792370        4.8427348027        5.4681910036
 H       -15.3877348348        4.5803403049        7.3153192831
 H       -12.6051510066        1.9807697724        6.9310410341
 H       -14.3134135270        1.3157211102        6.8527212638
 H       -13.8772189233        2.5800760021        8.1076683542
 H       -14.0323623829       -0.1394749670        0.8949444699
 H       -12.6872656976       -0.7147963540        0.2493482303
 H       -13.9114568642        0.1564617351       -0.8288566290
 H       -10.6350833944        0.1687419636        0.1091666997
 H       -10.4377829475        1.9448417120       -0.4221335792
 H       -11.2933663028        0.5860727769       -1.3414936834
 Na      -10.2074890196        3.8381563322        1.4396282502
