117

 C       -14.3681427276        2.8861148687       -0.1048687155
 C       -12.9652021899        2.7312235514        0.2257124780
 O       -12.2460643039        3.6977027437        0.3786245014
 C       -12.4692345341        1.4159033910        0.3247993964
 C       -12.2285161526        1.2660342212        1.9405332129
 O       -11.1113790018        1.5918262514        2.4083776774
 C       -13.4938822636        1.0788326739        3.0680353707
 C       -13.1192301388        2.1102255105        4.1756363963
 C       -14.4548571377        2.9056200894        4.6895695145
 O       -15.3763129397        2.8792747862        3.9021991711
 C       -14.4351310925        3.6114935047        6.1366973228
 C       -13.0924019495        4.5426548334        6.0779564286
 O       -12.1334256590        4.3323481669        6.7960538366
 C       -13.1881208530        5.8084966562        5.2477828000
 C       -11.8563106760        6.5083947622        5.0177485453
 C       -10.8995249472        5.9446177297        4.0348809196
 O       -11.2835827480        5.4269011249        2.9927500993
 C        -9.2570839529        5.9426184621        4.4134888927
 C        -8.4684719155        5.9515328606        3.0650949682
 O        -8.4166931585        4.8599363798        2.4756685572
 C        -8.1888841943        7.2450194090        2.3213486744
 C        -7.7563390952        6.8940964670        0.8930377712
 C        -9.2413352389        6.9718048157        0.1377087378
 O       -10.0310302634        6.1429587348        0.6321398477
 C        -9.5056040212        7.8460013686       -1.0536210651
 C        -8.8413067273        7.0770070952       -2.3850740272
 O        -7.8787515774        7.5977083253       -2.9491093080
 C        -9.4752361732        5.6186382149       -2.5802083020
 C        -8.6488473964        4.9931850425       -3.7753433598
 C        -7.3245321972        4.5325975555       -3.2248968655
 O        -7.0189593193        4.8042106406       -2.1001165797
 C        -6.2548704144        3.8814994222       -4.0821767636
 C        -6.8875053605        2.4367797851       -4.4683416698
 O        -7.6509863475        2.4115537366       -5.4413690355
 C        -6.7330441257        1.1863802342       -3.5269704856
 C        -6.2085643331       -0.0166114493       -4.2041177058
 C        -6.5026636300       -0.0900907230       -5.6559074984
 O        -5.7857007505        0.5883033293       -6.3778459966
 C        -7.7087818726       -1.0084678153       -6.3045009885
 C        -8.3080536301       -2.1355162796       -5.2497837774
 O        -8.3765725551       -1.8326932308       -4.0621765226
 C        -8.9004443082       -3.4340247737       -5.7687082253
 C        -8.8235842588       -0.0799593209       -6.7942635759
 C        -7.2105516045       -1.7139686716       -7.5881044156
 C        -6.1875052690        4.8582124890       -5.2873326305
 C        -4.8477586381        3.8518331316       -3.1936827618
 C       -11.0353387260        7.7586878016       -1.2414579104
 C        -8.8326807421        9.2028244047       -0.9470170242
 C        -8.7214079804        7.0377185838        5.3641344323
 C        -8.9796960742        4.4764143750        4.9373055523
 C       -15.8534235893        4.2641733223        6.4945172232
 C       -14.3285532685        2.4329498508        7.2322064134
 C       -13.2412487945        0.2573640274       -0.2802373264
 C       -11.0621798829        1.5336648680       -0.3932274606
 H       -14.8089443268        3.5825117357        0.5397446418
 H       -14.9555560935        1.8785711062       -0.1355700983
 H       -14.5617346811        3.2383567083       -1.1166932705
 H       -13.5139771454        0.0371022109        3.4203257272
 H       -14.4745464384        1.4546350714        2.5605678317
 H       -12.4799517970        2.7803291666        3.6747949714
 H       -12.7483179444        1.5303178126        5.0963463697
 H       -13.8819894721        6.4793382988        5.7732045785
 H       -13.6017791622        5.5252237428        4.2809643352
 H       -11.2834052991        6.5253606339        5.9141929469
 H       -12.1440166659        7.4994578415        4.7110287478
 H        -7.4477122899        7.8078710340        2.9285803740
 H        -9.1824377727        7.6055490365        2.4785082146
 H        -7.2484522240        5.9811021714        0.9976795659
 H        -6.9659173991        7.4209870519        0.4040025671
 H       -10.5648840872        5.5424741160       -2.6760410649
 H        -9.1456275461        5.0383052559       -1.7215961313
 H        -8.4402617658        5.7893496002       -4.4385619134
 H        -9.1770815496        4.2246210816       -4.3352660858
 H        -7.6994447586        0.8192969297       -3.0900077501
 H        -6.0225418168        1.3124190266       -2.7139691180
 H        -6.6375869278       -0.7968556259       -3.6828275738
 H        -5.0857409879        0.0149103061       -4.0728052915
 H        -8.2567196498       -3.9414050865       -6.5053067630
 H        -9.8048302319       -3.0776816045       -6.3348730804
 H        -9.2963041485       -4.0740533375       -4.8719831130
 H        -9.6149693855        0.1850939679       -6.0438651781
 H        -9.5058742862       -0.4438704746       -7.6354824341
 H        -8.2757820529        0.7763494327       -7.2475113883
 H        -6.4867390992       -1.0727290169       -8.2137361607
 H        -8.1017393632       -1.8809840890       -8.1579441088
 H        -6.7521035745       -2.6542065035       -7.3788853704
 H        -5.9208484926        5.8610584515       -5.0277732456
 H        -7.1811977559        4.7622569927       -5.6908979391
 H        -5.5608215231        4.3890979833       -6.0417507906
 H        -4.5733481098        2.8528163402       -2.9433339646
 H        -5.1427710584        4.4158015123       -2.1940880357
 H        -4.0856082246        4.4180702402       -3.7834011012
 H       -11.4515974296        6.8333119825       -0.7417901023
 H       -11.2455222651        7.9601559925       -2.2865668754
 H       -11.4512339100        8.6313695992       -0.7110023495
 H        -9.2282983438        9.8480593447       -0.1203968964
 H        -9.0031885165        9.8200178921       -1.8597180755
 H        -7.7791220315        9.0931985154       -0.8710817347
 H        -8.7257596701        8.0692159443        4.8275551383
 H        -7.6913731805        6.8581513397        5.5396008738
 H        -9.3629074634        7.1504949564        6.2043120376
 H        -7.9638664409        4.2973150128        4.8183371452
 H        -9.5470166622        3.7252128584        4.4047701003
 H        -9.2922536369        4.4669901639        5.9503592406
 H       -16.4375059153        3.4775377433        6.8450616375
 H       -16.2567851075        4.7840689212        5.6005132162
 H       -15.6134476078        4.9705487952        7.2227479857
 H       -13.5989624271        1.7484527444        6.9969009589
 H       -15.3460553489        2.0437850852        7.3714878414
 H       -14.0151981152        2.8801684108        8.1120419734
 H       -14.1702089346       -0.0076888942        0.2267836979
 H       -12.5937039442       -0.6217774145       -0.2408773545
 H       -13.4495393137        0.5023076939       -1.2763371772
 H       -10.5008284527        0.6817063331       -0.0706639916
 H       -10.5535904890        2.4879216996       -0.1189202428
 H       -11.2019845733        1.2900651892       -1.4282256199
 Na      -10.5213437879        3.8785103559        1.5506336474
