117

 C        -2.9989179259        7.0107666157        7.2547463086
 C        -4.0819458389        7.4478110565        6.3315207324
 O        -3.8713222187        8.1694248050        5.3602503733
 C        -5.5477205662        7.1411383993        6.8686415901
 C        -5.8860541717        5.9773533807        5.9097794690
 O        -6.0327861410        4.8378869268        6.4454491937
 C        -5.9567261057        6.1621366534        4.4712805541
 C        -6.1756932362        4.8569887596        3.7869892628
 C        -6.7260022189        4.8971537353        2.4073011346
 O        -7.9317449604        4.8931428280        2.2879002582
 C        -5.8012298639        4.8256191161        1.1036547293
 C        -6.0810558488        3.4125599156        0.3582151111
 O        -5.2284906479        2.6488594845        0.0038682368
 C        -7.5816189614        2.8896342221        0.1976987293
 C        -7.5229743429        1.4952392598       -0.5900340781
 C        -8.6044239683        0.4664273194       -0.2570374057
 O        -9.6615865594        0.3271643913       -0.8813392303
 C        -8.5229315380       -0.3636137693        1.0465373016
 C        -9.5162130350        0.5469355557        2.0664438786
 O        -9.0174978015        1.3613094039        2.7830587089
 C       -10.9941376126        0.2867362854        1.9973684530
 C       -11.6974539429        1.6300931036        2.3730187615
 C       -11.6101029699        2.4933990242        1.0303206142
 O       -10.6954487347        2.3422374156        0.2549096448
 C       -12.5959129757        3.7797642659        0.7781241077
 C       -13.3760843589        3.5382952532       -0.5572836563
 O       -12.8571001129        3.1293939025       -1.5637967078
 C       -14.9304692617        3.4662278381       -0.5330416570
 C       -15.4443380219        3.4889083530       -1.9762243796
 C       -15.3977139537        5.0088399151       -2.4822858661
 O       -15.4852707576        6.0633016915       -1.7984033151
 C       -15.4560484196        5.1117077500       -4.0498760845
 C       -14.1035352931        4.4600856884       -4.7667124790
 O       -14.1679777255        3.2862363937       -5.0151907434
 C       -12.7868895096        5.2994437324       -4.9098306788
 C       -11.8078573140        4.3970486162       -5.6676724096
 C       -10.7261749427        3.7573263881       -4.7820890840
 O       -10.6368679288        4.0548912089       -3.6450047646
 C        -9.8841292036        2.5000798537       -5.4286082461
 C       -10.8392485473        1.2480586101       -5.2373010459
 O       -11.3235443853        1.0689400556       -4.0929690149
 C       -11.1924407262        0.3100271896       -6.3833570370
 C        -9.6889771457        2.7280075296       -7.0063123166
 C        -8.5890574457        2.1234919410       -4.6806710019
 C       -16.7542692957        4.3248202746       -4.4780773582
 C       -15.6784279211        6.5634035236       -4.5529390205
 C       -13.6113889735        3.8736843741        1.9867752562
 C       -11.6030046528        5.0786200439        0.7638382048
 C        -9.0325856679       -1.8449628297        0.8745639846
 C        -7.1331880729       -0.2291918482        1.8359411662
 C        -6.4352716567        5.8553495053        0.1070060619
 C        -4.2842212536        4.9649317255        1.3182544237
 C        -5.5422569627        6.6129095102        8.3870146714
 C        -6.4911364571        8.3577046537        6.6974471062
 H        -3.2343261307        6.0308962555        7.5802613096
 H        -3.0472237024        7.7219746732        8.0546618120
 H        -2.0336309037        7.1644595725        6.6631944042
 H        -5.0257866934        6.6673159186        4.0604751283
 H        -6.8196254445        6.7790594690        4.2012727929
 H        -6.9134645298        4.2652469022        4.3406441953
 H        -5.2847615204        4.2725887807        3.8851427597
 H        -8.1722642043        3.5262117637       -0.5329661045
 H        -8.0883766801        2.8889941365        1.1813212366
 H        -6.5551954051        1.0918836747       -0.3343904854
 H        -7.5768407836        1.7540546660       -1.6318767757
 H       -11.1354668648       -0.4419946962        2.7841210270
 H       -11.3369728880       -0.1049866050        1.0409563169
 H       -11.1243240831        2.2108604292        3.0541773485
 H       -12.7498572730        1.5314176489        2.8372033110
 H       -15.4829250970        4.2899420509       -0.0770480318
 H       -15.1015654480        2.5643517415        0.0576429238
 H       -16.4659193245        3.1502371177       -2.0625824731
 H       -14.8836649144        2.9887509918       -2.7044098716
 H       -12.4069424307        5.6267536650       -3.9365885456
 H       -13.0735829142        6.2881951781       -5.3136955318
 H       -11.2857287490        5.0810019638       -6.3455728042
 H       -12.4252702351        3.6008041147       -6.1709977593
 H       -10.2305775187        0.1505623299       -6.8491090774
 H       -11.8727766879        0.7344679117       -7.1044698078
 H       -11.7248423426       -0.5620261505       -6.0647953498
 H        -8.8168439410        3.3141205190       -7.1236860550
 H       -10.5627989317        3.1236732607       -7.4729905147
 H        -9.5319367065        1.7946924671       -7.5851736190
 H        -8.8793932881        1.9124773799       -3.6625643933
 H        -8.0198993185        3.0448993644       -4.6452110511
 H        -8.0926381961        1.2602076114       -4.9655058705
 H       -16.6311859457        3.2542620415       -4.6205471055
 H       -17.0827263210        4.7532870790       -5.4506879722
 H       -17.5483285115        4.4954577916       -3.8309959378
 H       -15.4790629577        6.7476772447       -5.6308385897
 H       -15.1120634360        7.3512775730       -3.9149413694
 H       -16.6508912166        6.8406664322       -4.3257660943
 H       -13.1660748017        3.6691533252        2.9798648339
 H       -14.4720080806        3.2033523908        1.8061015445
 H       -13.9816229092        4.8884819971        2.2397248436
 H       -10.8662445862        5.0112315510        1.5062820524
 H       -12.2008643039        5.9264161057        0.7762650658
 H       -11.0543254141        5.0603816169       -0.1791762717
 H        -9.1633332747       -2.3569785458        1.8579782234
 H        -8.3571912048       -2.4337461255        0.3097424482
 H       -10.0668391861       -1.9212704239        0.4897730233
 H        -6.9943797446        0.8290941382        1.9526935006
 H        -6.2974132376       -0.6828342821        1.3940515079
 H        -7.1311278831       -0.7297859097        2.8568800989
 H        -6.0769749079        6.8964218992        0.3750265385
 H        -7.4639271632        5.7644845540        0.2938140359
 H        -6.1660167067        5.6115194752       -0.9277603983
 H        -4.1142425622        5.9043803926        1.8896598931
 H        -3.7467223964        5.1915144541        0.4008347066
 H        -3.6851431264        4.1248199905        1.7893955696
 H        -4.8454470061        5.7532286148        8.4938694179
 H        -6.5138651481        6.2963320448        8.7030339946
 H        -5.0951529282        7.3794675406        9.0711185997
 H        -7.4770935844        8.2147971977        7.2189464191
 H        -6.7627929603        8.5981002178        5.6373655573
 H        -6.0673335380        9.2222528000        7.2077940547
 Na      -10.9220992811        2.0338645343       -1.9854801535
