117

 C        -2.8309601109        7.2360746719        7.1704392415
 C        -4.1349618925        7.7358725812        6.3220005843
 O        -4.0049366878        8.1681981940        5.2314400170
 C        -5.5577041658        7.2342757806        6.8015859128
 C        -5.8902422955        6.0298954567        5.8564183894
 O        -6.0798412791        4.9135669951        6.3109642695
 C        -5.9125528331        6.1992930982        4.2905355876
 C        -6.0508522614        4.8158858370        3.6674887588
 C        -6.6944149034        4.7248754834        2.3350155312
 O        -7.9157648512        4.7370797108        2.0879963330
 C        -5.8710405169        4.7354724624        1.0237929105
 C        -6.0834699637        3.3357490134        0.4173750495
 O        -5.1515937684        2.7171258505       -0.0789050504
 C        -7.5804753575        2.8126587347        0.2817930748
 C        -7.6676852116        1.5002687979       -0.4742521549
 C        -8.7070840982        0.4785747556       -0.0545236552
 O        -9.6270977041        0.2277259128       -0.7913435898
 C        -8.5085829919       -0.3479994724        1.2804168497
 C        -9.4918209197        0.3953253926        2.2202148328
 O        -9.0011547146        1.3248894684        2.8454770770
 C       -11.0026178072        0.2415843434        2.0451461638
 C       -11.6613666637        1.6083037535        2.2686073432
 C       -11.5640727540        2.6152989049        1.1198981963
 O       -10.6571721851        2.3532140842        0.3470655393
 C       -12.5193559731        3.7654396855        0.9466693928
 C       -13.3532394733        3.4332450635       -0.4376535837
 O       -12.7201942215        3.1077480343       -1.4242047165
 C       -14.8756387544        3.5005315337       -0.5235358961
 C       -15.3921847676        3.6520874159       -1.9430904642
 C       -15.4221610904        4.9760058187       -2.6387751241
 O       -15.3961018344        5.9453637401       -1.9402625814
 C       -15.5802564335        5.1612001799       -4.1868151943
 C       -14.2933584603        4.3889567351       -4.7235281646
 O       -14.2822356868        3.2193723892       -5.0310057181
 C       -12.9141254838        5.1808168799       -4.8279086261
 C       -11.7733336442        4.4712884900       -5.7000381131
 C       -10.7250864946        3.8165641627       -4.8079993552
 O       -10.5810242937        4.0407241828       -3.5971229014
 C        -9.9920242764        2.5836874432       -5.4433675306
 C       -10.9796979583        1.2729353909       -5.2203940164
 O       -11.3663847333        0.9810900254       -4.0630904723
 C       -11.1978747173        0.2159474746       -6.2558162870
 C        -9.5673131318        2.7369140368       -6.9030875882
 C        -8.6953416349        2.2329257100       -4.7053589924
 C       -16.8939638871        4.4254536718       -4.4779196628
 C       -15.5828039348        6.5492518394       -4.6399543180
 C       -13.5215545934        3.9480035739        2.0349837701
 C       -11.6643126030        5.0548284790        0.8853108479
 C        -8.7590384979       -1.8518735131        1.0071398011
 C        -7.0690566854       -0.2964287336        1.8460319842
 C        -6.4695482062        5.8046786986        0.1551065109
 C        -4.3410739513        5.1097213295        1.2472826799
 C        -5.5489806008        6.7990460703        8.1878223561
 C        -6.6167812039        8.3812939857        6.6109386831
 H        -3.1855099385        6.5550879489        7.9232298928
 H        -2.4226607670        8.1294685993        7.6420117090
 H        -2.1468386592        6.8169636155        6.5030795971
 H        -4.9812520518        6.6128357643        3.8401312545
 H        -6.7875527050        6.7856337472        3.8554625685
 H        -6.5406114754        4.1666634137        4.3135201884
 H        -5.0833239850        4.3367557853        3.6527805833
 H        -8.1649665279        3.4657010766       -0.2951742984
 H        -8.0098105548        2.7851602908        1.3102739659
 H        -6.7237178987        1.0412219038       -0.2854154666
 H        -7.7904254198        1.7672371365       -1.5466112763
 H       -11.3461179141       -0.3503345148        2.9386071992
 H       -11.3732199102       -0.2054277584        1.0862909065
 H       -11.3564913863        2.1797776816        3.1873453682
 H       -12.7140068249        1.3870019755        2.4133764712
 H       -15.4086700463        4.3401949787        0.0970736218
 H       -15.2530883196        2.5370259651       -0.1036510123
 H       -16.4450890708        3.3598275891       -1.8800375960
 H       -14.9182153301        2.9669920167       -2.6566028447
 H       -12.5352150505        5.4129379076       -3.8640745358
 H       -13.2016946730        6.1577999014       -5.1458805821
 H       -11.2882175288        5.1693779350       -6.3383123066
 H       -12.2832184175        3.6327428990       -6.2164784512
 H       -10.3961977972        0.1177760555       -7.0118652060
 H       -12.0743970717        0.5284294665       -6.6935786538
 H       -11.6055497908       -0.7139391178       -5.7866477086
 H        -8.8811788229        3.5417381830       -6.9965494270
 H       -10.5378649612        2.8151898910       -7.4644200431
 H        -9.0840082222        1.8468382048       -7.3568315568
 H        -8.7205161697        2.2420495462       -3.6288574803
 H        -7.9624012465        3.0426604972       -5.0638659288
 H        -8.4147909237        1.2631952465       -4.9399289240
 H       -16.7543104869        3.4406912485       -4.1991983383
 H       -17.3077007775        4.4880260937       -5.4317418381
 H       -17.6639718382        4.8523594676       -3.8231861709
 H       -15.5528564914        6.6615463313       -5.7477989250
 H       -14.8243249799        7.1695372273       -4.1462114766
 H       -16.5095878733        7.0415145077       -4.2325673931
 H       -13.0993803491        4.2032034202        2.9741267797
 H       -14.2030393000        3.1575089280        2.0967986013
 H       -14.0006741490        4.8979092373        1.8846914218
 H       -11.2842841488        5.2896925308        1.8428691834
 H       -12.1717639555        5.8927521363        0.4020769102
 H       -10.8232870575        4.7715746726        0.3402474642
 H        -8.7270553154       -2.4653633671        1.8358129631
 H        -8.0081884107       -2.2710517615        0.2393258539
 H        -9.8107175278       -1.9937496459        0.6225651929
 H        -6.7484312911        0.7395166616        2.0315118959
 H        -6.4441027763       -0.8135443628        1.1274135973
 H        -6.8842610338       -0.9309402048        2.7703318188
 H        -6.3450695933        6.7206924349        0.6571728920
 H        -7.5501498989        5.6021259336        0.0240803707
 H        -5.9323199133        5.7698211936       -0.7882246551
 H        -4.1473328306        6.1391082139        1.5620143663
 H        -3.7582882234        5.0200616532        0.2988053700
 H        -3.7991189466        4.4300795412        1.9103854222
 H        -5.1020706197        5.8136184118        8.3732262515
 H        -6.5899336333        6.6862755581        8.3943807089
 H        -5.0309176912        7.5073479354        8.8524741551
 H        -7.2753831636        8.5188911125        7.4953609002
 H        -7.3008778620        8.0950822422        5.8017706497
 H        -6.1927479902        9.3976118134        6.4800328846
 Na      -10.9025868361        1.9294247047       -2.0324457817
