117

 C       -14.2712418129        1.9526291669       -0.9540076413
 C       -13.5148431472        2.4899955957        0.3141201138
 O       -12.9546854848        3.5905700319        0.3817133553
 C       -13.5349614883        1.6159573295        1.6539133035
 C       -12.7908826492        2.1474411309        2.8879469046
 O       -11.6452834783        2.4382085585        2.9474257369
 C       -13.6049482822        1.9184777990        4.2614175150
 C       -14.6044272699        2.8567406006        4.9133760785
 C       -14.5946228727        4.1509478684        4.1924318826
 O       -14.1040463924        4.0782533003        3.0779549390
 C       -14.9538431557        5.3835820995        4.9892959956
 C       -13.4455096258        5.7184695708        5.7739514585
 O       -12.9921041928        4.8072174055        6.4421447430
 C       -12.8572650204        7.1238661668        5.6095505314
 C       -11.3172620182        7.1600239415        5.8344668195
 C       -10.6030626698        6.6574134923        4.5107426185
 O       -11.2354832088        6.1900244758        3.6128747036
 C        -8.9022659302        6.4368466500        4.4123600659
 C        -8.6411242749        6.0130327357        2.9323728900
 O        -9.1045447681        5.0427102128        2.4053951558
 C        -7.7320014804        6.9658415277        2.0164328253
 C        -7.6186371603        6.3665147594        0.7082629836
 C        -8.9579540375        6.4583708912       -0.2581434349
 O       -10.0660429919        5.9756928964       -0.1182580273
 C        -8.8079499174        7.3784694646       -1.5506162699
 C        -7.7050831827        6.7594339464       -2.3281121161
 O        -6.5518252759        7.1002148291       -2.0235341829
 C        -7.9056801426        5.8353899698       -3.5822346171
 C        -6.4908369427        5.7225977588       -4.3651670037
 C        -5.8733900096        4.3160541432       -3.7291307868
 O        -5.7937950308        4.0967678339       -2.5910245901
 C        -5.2373818249        3.2765165386       -4.7497291631
 C        -6.1722311150        2.1716293219       -5.4532013963
 O        -7.1106751982        2.4802331097       -6.2492039214
 C        -6.0851341989        0.6987004860       -5.1364101403
 C        -7.2822265333       -0.0838216343       -5.6023049071
 C        -7.3437148987       -1.5469802473       -5.3963542642
 O        -6.3669423730       -2.2135367558       -5.0753784738
 C        -8.6107730037       -2.4437261608       -5.3647026532
 C        -9.0161904331       -3.2184216132       -3.9566204683
 O       -10.1324159902       -3.0303783168       -3.5014809044
 C        -7.8509435169       -4.1671154952       -3.3925218777
 C        -9.9644231335       -1.7594774202       -5.9413363853
 C        -8.3938632900       -3.7005080706       -6.2475590300
 C        -4.6656307968        4.1848068532       -6.1207619835
 C        -4.0335641858        2.6947047319       -4.1064633151
 C       -10.1447982898        7.2666704285       -2.3919716006
 C        -8.3843305672        8.8416847714       -1.2216954726
 C        -8.1844774695        7.7541978851        4.9852214733
 C        -8.4937494998        5.2562858384        5.4244615977
 C       -15.4384365024        6.6043725488        4.1890499385
 C       -15.9235421458        5.1900725774        6.2472678811
 C       -15.0738484478        1.2574393778        1.8794786219
 C       -12.9248100112        0.1673817105        1.0614507665
 H       -14.7799131096        2.7419043371       -1.4433417156
 H       -15.1899324026        1.5195825655       -0.7507156181
 H       -13.5687143954        1.3433544069       -1.5952511088
 H       -12.7489261478        1.7112572465        5.0024626085
 H       -14.1605131800        0.9310741666        4.0853950702
 H       -14.3933996157        3.0041965308        5.9693574592
 H       -15.6559888322        2.4643613904        4.9332016792
 H       -13.3744249223        7.8964648392        6.0946554590
 H       -12.9785837840        7.4876823383        4.6235360108
 H       -10.9984999857        6.6735623358        6.8050696700
 H       -11.0846332280        8.2289213717        6.0810210995
 H        -6.7882328237        7.1108904144        2.5706509388
 H        -8.0526701038        7.9503992988        2.0423389331
 H        -7.3387756161        5.3509849755        0.8311300551
 H        -6.8996441787        6.9258328538        0.1082846044
 H        -8.7399412635        6.3255034784       -4.1926959973
 H        -8.2174746436        4.8590471550       -3.2103096387
 H        -5.8151325171        6.5777911177       -4.1768565444
 H        -6.6465301320        5.6516858529       -5.4185967961
 H        -5.9507053475        0.7404361470       -4.0829831216
 H        -5.0905775508        0.2502562897       -5.4713142497
 H        -7.3547175586       -0.1589015938       -6.6519104898
 H        -8.2426005890        0.3855193495       -5.3981455046
 H        -7.4204323190       -3.7134580299       -2.5200050677
 H        -7.1495064396       -4.4346921527       -4.1858588921
 H        -8.1841016886       -5.0398227313       -3.0019189920
 H       -10.7285615727       -1.8496930109       -5.1736606637
 H       -10.4400370062       -2.3239387979       -6.7184849706
 H        -9.6653917696       -0.8102344204       -6.3711744079
 H        -7.9033341409       -3.5046477968       -7.1176790402
 H        -9.2457640256       -4.3481661432       -6.6111030325
 H        -7.7281583486       -4.3645422187       -5.6538807011
 H        -4.1753545547        5.1269013045       -5.7903805650
 H        -5.6688439442        4.4102746126       -6.6170252503
 H        -4.1408335295        3.5375666726       -6.8500882661
 H        -2.9738720124        3.2289438811       -4.2817248612
 H        -3.8191026996        1.6561455258       -4.4013645372
 H        -4.1242852482        2.5257321141       -3.0176397023
 H       -10.4417834462        6.2654351506       -2.7494232423
 H       -10.2163897712        7.9781382834       -3.1534285691
 H       -10.9878231735        7.4877671840       -1.7602427625
 H        -9.2022420865        9.3022460484       -0.6499764477
 H        -8.2415224658        9.2646052100       -2.2506333454
 H        -7.4787379357        8.8167212944       -0.7519587140
 H        -8.3543553057        8.5431762072        4.4410441812
 H        -7.0467589720        7.7673243502        5.2208605679
 H        -8.7603715251        7.9317351758        5.9341085731
 H        -8.5897469390        4.2304651699        5.1575359709
 H        -9.0715038456        5.2576438419        6.3773933113
 H        -7.4570593504        5.3728309155        5.9089998716
 H       -16.4424109305        6.3230375285        3.8089453680
 H       -14.7526486376        6.7381380772        3.4171200826
 H       -15.5418691984        7.4780678711        4.8932463866
 H       -15.6179667434        4.4521920506        7.0214221411
 H       -16.9365747571        4.8824498178        5.9048432239
 H       -16.1434443542        6.1691671498        6.8278909539
 H       -15.6204636757        2.0373739579        2.4600100501
 H       -15.1613425144        0.3432112902        2.5739472309
 H       -15.6716253168        0.9064389555        1.0333878795
 H       -12.7080010318       -0.5127688087        1.8699343558
 H       -11.9445481650        0.3022087459        0.5878914240
 H       -13.6452919034       -0.2985017656        0.4186110315
 Na      -11.1805951284        4.5445685709        1.4880443262
