117

 C       -14.3057077675        2.0217613889       -0.8716195992
 C       -13.6342830304        2.4572064812        0.3326904747
 O       -13.1418739668        3.5307582455        0.4073740337
 C       -13.6090836918        1.4862261329        1.6735928121
 C       -12.8136675217        2.1491515944        2.8896739733
 O       -11.6643804429        2.5947147246        2.8368113697
 C       -13.3437454750        1.8497728801        4.4075783174
 C       -14.5487059722        2.8350482993        4.7536073092
 C       -14.5194599393        4.2979882643        4.1309606880
 O       -14.1790288648        4.5399669727        2.9386525827
 C       -14.8472766783        5.5452234809        4.9576788520
 C       -13.4701644425        5.8162386767        5.6317463524
 O       -12.9036289892        4.9321584477        6.2509426262
 C       -12.8471016892        7.2303801956        5.6957976522
 C       -11.2845514807        7.2372656110        5.6180397654
 C       -10.5571933004        6.5254949297        4.4873211861
 O       -11.2782708237        6.0039805790        3.6547484954
 C        -9.1036142026        6.4958362498        4.3548419754
 C        -8.6655317070        6.1134633962        2.9060557184
 O        -9.0536255766        5.0400135859        2.3949021481
 C        -7.7644480903        6.9503167554        1.9367865475
 C        -7.7700571295        6.4643897672        0.4957028654
 C        -9.0341262246        6.5410307515       -0.2551532764
 O       -10.0465907496        5.9145419707        0.1982783809
 C        -8.8665212497        7.3174770312       -1.5244548406
 C        -7.4578506968        6.7072928573       -2.2142884154
 O        -6.3494298292        6.8138075519       -1.7160637706
 C        -7.6960608383        5.9638340749       -3.5306614006
 C        -6.3764207238        5.4761507364       -4.2119503681
 C        -5.8117793264        4.2112873952       -3.6994725074
 O        -5.8335250885        3.9921684193       -2.5181558234
 C        -5.2744221233        3.2433597011       -4.8077311695
 C        -6.3680610181        2.2308049558       -5.4356862050
 O        -7.0593652245        2.5759362479       -6.3804404065
 C        -6.1489902907        0.7161699010       -5.1469578899
 C        -7.2564976866       -0.0614062203       -5.8144788308
 C        -7.3385127515       -1.6605860567       -5.2486673532
 O        -6.2907349350       -2.1519464071       -5.0140943954
 C        -8.6225214786       -2.5709128444       -5.2685003740
 C        -8.9741117871       -3.1774581890       -3.8665116529
 O       -10.1002318885       -3.1336255621       -3.3944725559
 C        -7.9924186600       -4.0900993481       -3.0922572638
 C        -9.9630134647       -1.8302841283       -5.8764761022
 C        -8.3656898519       -3.7014210253       -6.3296800316
 C        -4.8182746869        3.9899686791       -6.1084682951
 C        -4.0320510770        2.5130586454       -4.2634015426
 C       -10.1162917674        7.3198374128       -2.4773794360
 C        -8.3836307046        8.7298642919       -1.2385123739
 C        -8.2137935754        7.6376983449        4.6946698717
 C        -8.5922601035        5.3407709596        5.3046244875
 C       -15.3767345990        6.6070602859        3.9586125050
 C       -15.9400430613        5.2739958377        6.0465206608
 C       -15.1400183315        1.5525688359        1.9772138363
 C       -12.9678279897        0.1606960553        1.4589837350
 H       -14.6694914440        2.8652167846       -1.4198120161
 H       -15.3707392414        1.5378540636       -0.8918735943
 H       -13.5466771054        1.4537424766       -1.3145614950
 H       -12.4478970217        1.9129167817        5.1704335707
 H       -13.6812423549        0.7869951716        4.2547327074
 H       -14.5185801734        3.0838924986        5.8110800441
 H       -15.6197298982        2.3352241636        4.6135987501
 H       -13.0564088379        7.6126380126        6.6842526290
 H       -13.2954774674        8.0585950666        5.2021412143
 H       -11.0356084923        6.7856497789        6.5671027860
 H       -10.9258608734        8.2810402685        5.8231547016
 H        -6.7823655906        6.8663538842        2.5656899601
 H        -7.8823058415        7.9794833106        2.0755129600
 H        -7.6474886060        5.3991259998        0.4267680036
 H        -6.9374899615        6.9392961516       -0.0780610412
 H        -8.0561004608        6.7267493931       -4.2779986306
 H        -8.4721239165        5.2394065787       -3.2941683013
 H        -5.6180588963        6.1974664980       -4.1229974307
 H        -6.6301775350        5.4076765720       -5.2886923206
 H        -5.9626714761        0.5247988487       -4.0582566782
 H        -5.1460461441        0.5366531281       -5.5565601673
 H        -7.3157336194       -0.1513419686       -6.8551455774
 H        -8.2718015726        0.4645762883       -5.6263853757
 H        -7.4077643177       -3.4354896892       -2.3940507789
 H        -7.4532969893       -4.7923044888       -3.7034390737
 H        -8.5220744950       -4.7026345793       -2.2971102928
 H       -10.9726572224       -2.2835699533       -5.5579436481
 H        -9.9686349604       -2.0709488362       -6.8939156722
 H        -9.6783243410       -0.7349104377       -5.9944257953
 H        -7.9831723705       -3.3121401870       -7.2647069802
 H        -9.1915813779       -4.3385916637       -6.6336987009
 H        -7.6500453711       -4.3475582512       -5.8793526311
 H        -4.2270285107        4.8780782928       -5.8308748141
 H        -5.7115907265        4.2125116158       -6.7394843297
 H        -4.2749281501        3.2577610982       -6.6479833070
 H        -3.1912372327        3.0557317837       -3.7764811304
 H        -3.5108717132        1.6945683611       -4.8486781277
 H        -4.4735375893        1.9109488112       -3.5000033005
 H       -10.5465830792        6.3513557803       -2.6158514253
 H       -10.0611768489        7.8652874186       -3.3987121020
 H       -10.9413361185        7.7824510120       -1.9845918807
 H        -9.1033170916        9.0762695512       -0.5557821932
 H        -8.2413388118        9.2736040480       -2.1487809202
 H        -7.3650130981        8.6691652625       -0.7224901604
 H        -8.6188551329        8.6709126067        4.2167766464
 H        -7.1539142232        7.4924189649        4.4093832892
 H        -8.2413777346        7.7404590484        5.7875776446
 H        -9.3108044303        4.5054139128        5.1791892626
 H        -8.5750106824        5.4652152236        6.3618058795
 H        -7.5996404155        4.9399259726        5.1519106754
 H       -16.3186046134        6.1920905110        3.6910054097
 H       -14.7891998897        6.6191298912        3.0764714680
 H       -15.4547823883        7.5329811266        4.4066769437
 H       -15.5035345724        4.6884171270        6.9123789285
 H       -16.6945174623        4.6435812721        5.6917914540
 H       -16.4545819959        6.1594249815        6.5068391222
 H       -15.2477843295        2.3639110342        2.6859538623
 H       -15.6838469052        0.6817537353        2.4160676333
 H       -15.8589069194        1.7781075954        1.1316238470
 H       -12.9783165504       -0.4436539944        2.3624799655
 H       -11.9793726589        0.4277457355        1.4775333633
 H       -13.2124581940       -0.4900855657        0.5657233079
 Na      -11.1727918906        4.4230676865        1.5997821475
