117

 C       -14.1239128969        1.9011530420       -0.7862213659
 C       -13.6530966152        2.5014979027        0.5187629686
 O       -13.0082298181        3.5684483912        0.4625996291
 C       -13.8233769098        1.7170844152        1.7825500091
 C       -12.8783048658        2.3696771894        2.8881182726
 O       -11.7476052270        2.5898173213        2.6009589596
 C       -13.3021243639        2.2794629637        4.4281684897
 C       -14.2642497968        3.2839275878        4.9034471049
 C       -14.3640536322        4.4866906615        3.9061204403
 O       -14.0873268379        4.3259964520        2.7583106020
 C       -14.6693106432        5.7456983288        4.8126769220
 C       -13.3122692098        6.0661114273        5.5138917799
 O       -12.7223085817        5.1433964939        6.0837403831
 C       -12.7633880687        7.4546195757        5.5736824519
 C       -11.2945699588        7.3847157301        5.3953236787
 C       -10.7237413421        6.5465863044        4.3767161668
 O       -11.4732380151        5.8632862017        3.7339035076
 C        -9.2967976876        6.3751375863        4.2841851464
 C        -8.7143045664        5.8861204309        2.8699742910
 O        -8.9518336323        4.7934379717        2.5217921393
 C        -7.8893666093        6.8893302801        2.0544865582
 C        -7.6932065375        6.2467329082        0.6863717689
 C        -8.9000388207        6.4932334400       -0.2628987251
 O       -10.0075145960        6.2292833517        0.0343559244
 C        -8.6429981723        7.2881903519       -1.5113577729
 C        -7.4315560980        6.6979189778       -2.2401186125
 O        -6.3630543484        6.4822563055       -1.7408651577
 C        -7.5625067519        6.1042617740       -3.7111243687
 C        -6.3112434474        5.3458320227       -4.2915229677
 C        -5.7900439660        3.8447264754       -3.9097589573
 O        -5.9284070187        3.4946865096       -2.7640910820
 C        -5.1291770378        3.0033086952       -4.9516064985
 C        -6.4298131930        2.0883886406       -5.5799742370
 O        -7.3210146351        2.6357626651       -6.2156268872
 C        -6.5037239834        0.6621930768       -5.1916786227
 C        -7.4641124747       -0.3086075603       -5.8096133141
 C        -7.3585663480       -1.7047843013       -5.1872960705
 O        -6.3208938007       -2.0928891652       -4.6805611963
 C        -8.6125685909       -2.6808390827       -5.1450176733
 C        -8.9744532816       -3.1508825379       -3.7945633057
 O       -10.1484221993       -3.0315546646       -3.4770280863
 C        -7.8824940539       -3.7232288360       -2.8974954052
 C        -9.8395707709       -1.9000624308       -5.6406901091
 C        -8.2110913691       -3.8225486645       -6.1805740233
 C        -4.4750858361        3.9250102438       -6.0719958823
 C        -4.0683599230        2.1096558844       -4.2966931426
 C        -9.8456513014        7.1680812572       -2.4118133634
 C        -8.4463750286        8.8175465926       -1.1463055582
 C        -8.7263458330        7.7158992377        4.7340381024
 C        -8.7941390104        5.2530757510        5.2503288703
 C       -15.1943652469        6.9645449840        3.9115419945
 C       -15.8305346126        5.3813474302        5.7703878541
 C       -15.3732183007        1.5584014153        2.0595130376
 C       -13.4101385394        0.1044196544        1.7189786505
 H       -14.6545206025        2.6192074494       -1.4170262333
 H       -14.9309632796        1.2760579445       -0.6300851136
 H       -13.2493945366        1.2727316423       -1.2111460623
 H       -12.4046015008        2.4489706404        4.8835867533
 H       -13.6566695734        1.2933775028        4.5163934445
 H       -14.1241943069        3.4791071425        6.0063734305
 H       -15.2000430002        2.8292366518        4.7362341613
 H       -13.0238404300        7.8883281906        6.5791005718
 H       -13.2595337248        8.2788474318        4.9987326952
 H       -11.0027483265        6.9325885296        6.3644438494
 H       -10.9070964576        8.3752548477        5.3780926204
 H        -6.9976787354        7.0618357348        2.6065861124
 H        -8.3251347704        7.9668397198        2.1131567851
 H        -7.4904264712        5.1206954647        0.7069823649
 H        -6.8146175937        6.6900767527        0.1954163663
 H        -7.6634310637        6.8722556040       -4.4357985624
 H        -8.4722020667        5.5098630309       -3.7377170741
 H        -5.3389263023        5.8713609292       -4.0192468313
 H        -6.4540145172        5.5676028402       -5.3337217271
 H        -6.7266613329        0.8534243361       -4.1515268723
 H        -5.5279523973        0.1707115383       -5.0896914331
 H        -7.5061030723       -0.4403461928       -6.9372680273
 H        -8.4660614182       -0.0700319256       -5.6659799880
 H        -7.0025994161       -3.0710815470       -2.9729728528
 H        -7.7020751709       -4.7958797718       -3.2401745234
 H        -8.0507849478       -3.7980743993       -1.8610685024
 H       -10.3659467789       -2.5819729330       -6.2353777401
 H        -9.5514801798       -1.1051327735       -6.3740329667
 H       -10.3478733220       -1.3787418847       -4.8970087456
 H        -8.4549661682       -3.3937517852       -7.1198807305
 H        -8.7995299252       -4.7644645248       -6.1518205123
 H        -7.1587468957       -4.1583390432       -6.1679004634
 H        -3.8284782876        4.6319659666       -5.6515826787
 H        -5.3055967623        4.3550276086       -6.5715782715
 H        -3.8974256017        3.3194394251       -6.7616344162
 H        -3.6186108918        2.6921821430       -3.4415246833
 H        -3.3061427784        2.0251282619       -4.9533626552
 H        -4.1031103121        1.1667464006       -3.8192962735
 H       -10.1978747491        6.1005778985       -2.4199816417
 H        -9.7727433920        7.5317956329       -3.4421045059
 H       -10.7847542760        7.6389975861       -2.0655041327
 H        -9.2942668815        9.0629453357       -0.4749634646
 H        -8.2881694484        9.4062344652       -2.0778813818
 H        -7.5775388376        8.8482930708       -0.6010981100
 H        -9.0807274101        8.3751045022        4.1212111276
 H        -7.6111822604        7.6254446453        4.6640023825
 H        -8.7890066661        8.0180925727        5.7982399942
 H        -9.5178290170        4.7348293955        5.7844903334
 H        -8.1668099320        5.6718311697        6.0430151765
 H        -8.1365838853        4.4971949765        4.7920526476
 H       -15.9989016608        6.6495550553        3.2107315198
 H       -14.4005133605        7.3291217078        3.2501246025
 H       -15.3678961433        7.8326969631        4.6440800892
 H       -15.5556682858        4.8374529752        6.6100944709
 H       -16.6049676905        4.7159361438        5.3689252058
 H       -16.3069229667        6.2721326342        6.1247173792
 H       -16.0992035101        2.2977991808        1.7775018619
 H       -15.4174112813        1.4515983557        3.1185406282
 H       -15.7746681783        0.6637196866        1.7515737270
 H       -13.9556644694       -0.3912339381        2.5286890143
 H       -12.3298014425       -0.1742502371        1.9949930877
 H       -13.6798684602       -0.3047180686        0.7810817992
 Na      -11.2006437442        4.5569326057        1.7340408792
