117

 C       -13.3295822919        1.7820196759       -1.1066142353
 C       -13.0205907277        2.2723110349        0.3827015524
 O       -12.2991186606        3.2229677984        0.4192397479
 C       -13.7801568964        1.8571464565        1.6268622410
 C       -13.0258665390        2.4940173352        3.0532150199
 O       -11.8517644252        2.7360034427        2.9336770456
 C       -13.7225622293        2.7229853295        4.4423551065
 C       -13.6902516961        4.2001203944        5.1332717000
 C       -14.0082171905        5.3564096270        4.0655628056
 O       -13.3914011907        5.3579414129        2.9991125522
 C       -14.7426763546        6.6469808107        4.4170335991
 C       -13.6777348450        7.2493247880        5.2984345768
 O       -13.7421974698        6.8373928039        6.4114179895
 C       -12.7293673977        8.3260837896        4.8343234398
 C       -11.2264920989        8.0080151055        4.9474645212
 C       -10.5547116306        7.2771446619        3.8078540598
 O       -10.9365740791        7.3988695133        2.6933092499
 C        -9.4906491257        6.2138657165        4.2024308870
 C        -8.7971346211        5.4916161162        2.9822666452
 O        -8.8822306034        4.2612729894        2.7986431525
 C        -7.8316308891        6.2849362721        2.0319375882
 C        -7.7839112021        5.5220855216        0.8069200006
 C        -8.8369344817        5.7988695923       -0.2982626007
 O        -9.9702668501        5.3464615755       -0.1632435164
 C        -8.5277155598        6.7303568456       -1.4127516912
 C        -7.3922545270        6.0180691994       -2.2257217941
 O        -6.3199496309        5.8047292298       -1.6998174975
 C        -7.6973856903        5.7496335884       -3.7549413026
 C        -6.3913873509        5.2196392849       -4.4492215837
 C        -6.0384428999        3.6301695243       -3.9514895553
 O        -6.3095610414        3.2571295947       -2.8462296047
 C        -5.3461251524        2.7127690226       -5.0920217308
 C        -6.2391158600        1.5305875486       -5.6388813351
 O        -6.7380276544        1.6926091388       -6.6970127747
 C        -6.1480562201        0.0841045684       -5.0000028689
 C        -7.3928581200       -0.8087419330       -5.4026223657
 C        -7.3202132674       -2.2451120105       -4.8925596000
 O        -6.3563841801       -2.7459082250       -4.3645198331
 C        -8.8032642694       -3.0275298161       -4.8229596223
 C        -9.3556666853       -2.9732949381       -3.2704446043
 O       -10.1833947252       -2.1230041634       -3.0350436594
 C        -8.7280760799       -3.7281887187       -2.1403567863
 C        -9.9384870540       -2.7530442843       -5.8318905247
 C        -8.4602062813       -4.4995071425       -5.1214098643
 C        -4.8788908974        3.2753958532       -6.3929997757
 C        -4.2080195602        2.1272184928       -4.2364064215
 C        -9.9115194983        7.0741839266       -2.0683598429
 C        -7.9300931845        7.9959462649       -0.8157972321
 C        -8.3067914283        7.0018164582        4.8756098440
 C        -9.9867459690        5.1724754338        5.2234700213
 C       -15.0900415765        7.6339016827        3.1884707963
 C       -15.9435340059        6.4365137680        5.3912175215
 C       -15.1490724528        2.6570016973        1.5711360240
 C       -13.8825512265        0.3682353068        1.9519286197
 H       -13.2944926411        2.7332784524       -1.6851420732
 H       -14.1035695631        1.0064452492       -1.1072893748
 H       -12.4109937198        1.4199203212       -1.4861221105
 H       -13.3541415753        2.0621810535        5.1935049001
 H       -14.7225032176        2.4422553886        4.4177477449
 H       -12.6892856876        4.3108506601        5.4101662190
 H       -14.3845044504        4.0562884637        5.9901376126
 H       -12.9139134831        9.2047417125        5.5261149530
 H       -12.9103892213        8.5469873572        3.7384181792
 H       -11.0181597602        7.4485932355        5.8163170929
 H       -10.6101200623        8.8935544226        5.0220780476
 H        -6.7327810265        6.2904407357        2.4563866115
 H        -8.3054571886        7.1870152476        1.8440948135
 H        -7.7676569750        4.4338676981        0.9938352169
 H        -6.7036553793        5.5270441267        0.4071065390
 H        -7.9516994945        6.7837790189       -4.0530079709
 H        -8.5703407698        5.1932910330       -3.9393702449
 H        -5.5516598884        5.8290448303       -4.0798060142
 H        -6.4104278725        5.5083802698       -5.5138493879
 H        -6.1527978687        0.1675693823       -3.9302241733
 H        -5.1420941595       -0.3255914178       -5.3068049367
 H        -7.3599591053       -0.8258561715       -6.4481240351
 H        -8.3643189732       -0.3407242257       -5.0064661990
 H        -7.6467049192       -3.7077065909       -2.3814181860
 H        -8.8620740232       -4.8054508030       -2.0343091203
 H        -9.1320834606       -3.2570324652       -1.1582912387
 H       -10.0559656135       -1.7049983536       -5.9906616227
 H       -10.9190586168       -3.2782391761       -5.4608257886
 H        -9.6737896986       -3.0002055897       -6.8528894002
 H        -8.3250044666       -4.6245428545       -6.2530577906
 H        -9.2754817991       -5.1118428757       -4.8898067305
 H        -7.6199503876       -4.8946761723       -4.6417007103
 H        -4.0110519310        3.8891250459       -6.0981173798
 H        -5.5838463265        3.7001532452       -7.0978663314
 H        -4.4190285248        2.4109093768       -6.8445535177
 H        -3.4580288889        2.7838150542       -4.1553922290
 H        -3.8196192561        1.1885071353       -4.5176928580
 H        -4.4687611375        1.8961849332       -3.1717442981
 H       -10.3646253585        6.2206766047       -2.5469655935
 H        -9.9450282610        7.7395185139       -2.9374999177
 H       -10.6752508394        7.5484562365       -1.4362732142
 H        -8.5923947652        8.4599338839       -0.1529551278
 H        -7.8009967977        8.6331292752       -1.6669237852
 H        -6.9194284715        7.6398959916       -0.3814356391
 H        -8.0210519327        7.8696943973        4.3955056402
 H        -7.4723033427        6.3863955734        4.7365817861
 H        -8.5858472470        7.2594433301        5.8906624207
 H        -9.1708541439        4.5635672640        5.7070928544
 H       -10.5669463207        4.4464956242        4.7137720391
 H       -10.5393253781        5.6396450065        5.9743450783
 H       -16.1127366183        7.6676827845        2.8425759872
 H       -14.4398338785        7.4328580074        2.2900369269
 H       -14.9758007173        8.6487743781        3.3958043951
 H       -15.6111036820        5.8301185389        6.2229121114
 H       -16.7944979899        5.9504457736        5.0100113622
 H       -16.3311447441        7.3026326664        5.8447284489
 H       -15.3585563211        3.1118428689        0.5954788235
 H       -15.2278003816        3.5349321521        2.2244404311
 H       -15.9943058785        1.9061558961        1.7543059854
 H       -14.2054872389        0.2660782223        2.9854184435
 H       -12.9738028325       -0.1334082632        1.7565573528
 H       -14.6649261197       -0.2009482289        1.4160328763
 Na      -11.1059493610        4.7332399075        1.7083091673
