117

 C       -12.6554431901        1.2619463576       -0.7642099060
 C       -12.8312351033        2.2845994003        0.3950538157
 O       -12.1152087927        3.2704612487        0.2901258790
 C       -13.8871721072        2.2644836473        1.5549727162
 C       -13.2436355048        2.8730182785        2.9898465914
 O       -12.0386366261        2.8731141155        3.2582479608
 C       -14.2108846442        3.3042703066        4.1680074219
 C       -13.8034429375        4.6655945154        4.7797826620
 C       -14.0072594451        5.6868877153        3.7002577191
 O       -13.5726504721        5.4370161094        2.5918506988
 C       -14.6734608211        7.0257835213        4.1591544938
 C       -13.4891257899        7.7342745997        4.8613459337
 O       -13.3005094413        7.5301830200        6.0432768522
 C       -12.3275629843        8.7204995494        4.0494377687
 C       -10.8659455002        8.3317029777        4.4178627341
 C       -10.5169796228        6.9869495772        3.8352807647
 O       -11.0678024078        6.6789681313        2.8815088089
 C        -9.3178237179        6.1129476308        4.4900159729
 C        -8.7999672850        5.3710368063        3.2063752725
 O        -9.1057221906        4.2346855299        2.8601033678
 C        -7.6726771112        5.9982757066        2.2509839231
 C        -7.6720012168        5.4514511792        0.8550789535
 C        -8.8477599347        5.6869044114       -0.1645561948
 O        -9.9505317768        5.2779869014        0.0164722580
 C        -8.3958768722        6.5758786349       -1.3566008713
 C        -7.2859288486        5.8319329635       -2.3679041099
 O        -6.1292240327        5.8942364630       -2.1428447300
 C        -7.9856015536        5.1496431239       -3.6092839985
 C        -6.9672010387        4.4768799156       -4.5339776067
 C        -6.4535391015        3.1777447994       -4.0674274075
 O        -7.0447012794        2.5404045906       -3.2311232480
 C        -5.3628394187        2.3611905723       -4.9712211059
 C        -6.2902391005        1.2515249591       -5.4552804395
 O        -7.1132247918        1.7158115697       -6.2242487429
 C        -6.3405032159       -0.0095274905       -4.5297953042
 C        -6.9605175960       -1.0934214505       -5.3818021783
 C        -7.2177678481       -2.4371414652       -4.6482310090
 O        -6.4331281449       -3.0393065095       -3.9453235022
 C        -8.7410492279       -3.0820495706       -4.5740808831
 C        -9.3355230028       -2.5501292049       -3.1250773902
 O        -9.8554472603       -1.4559447801       -2.9947272629
 C        -9.1372173126       -3.5660208840       -1.9974404703
 C        -9.4457735361       -2.5480259538       -5.8250121375
 C        -8.8392555474       -4.5644488893       -4.8023815309
 C        -5.0032558110        3.1235842478       -6.3270790957
 C        -3.9724703589        2.0028455831       -4.2382456997
 C        -9.6841664004        6.8843615012       -2.1169053388
 C        -7.6388958075        7.9440026513       -0.8076989415
 C        -8.2100466339        6.9268565168        5.1368885788
 C       -10.0620696460        5.2234302519        5.4569410485
 C       -15.1305561709        7.8862725015        3.0240638418
 C       -15.5990974393        6.7196303488        5.3133098129
 C       -15.1593876081        3.0231897164        1.1254028697
 C       -14.0018366591        0.8275529088        2.0781745696
 H       -13.4150090392        0.4227011606       -0.6951586143
 H       -11.6336473606        1.1414598977       -0.6444579316
 H       -13.0041407156        1.7548584006       -1.7144637418
 H       -14.1254037989        2.4751050291        4.8875609673
 H       -15.2567009843        3.2999491376        3.9603829621
 H       -12.7439381914        4.6102369958        5.0348021160
 H       -14.2930410346        4.8632945233        5.7526177613
 H       -12.3747133273        9.7762970752        4.4239195536
 H       -12.4154868501        8.4632136049        2.9653074476
 H       -10.5485869993        8.3722551612        5.4266837176
 H       -10.1870970261        9.0187619004        3.9333860415
 H        -6.6610681733        5.6159929032        2.7034850511
 H        -7.8774875154        7.0262409379        2.1011082860
 H        -7.4540220626        4.3840608514        0.8351254417
 H        -6.7169484623        5.8858550386        0.3808423448
 H        -8.6495163972        5.9085273892       -4.1058655425
 H        -8.6868265518        4.4332827051       -3.2068317979
 H        -6.2244973577        5.1320361238       -4.9067517254
 H        -7.6048148195        4.2878517652       -5.4219168997
 H        -6.8813459250        0.3256357288       -3.6548219661
 H        -5.3744978994       -0.4547131837       -4.1770797321
 H        -6.3047784699       -1.3037901804       -6.1726009468
 H        -7.9963024724       -0.8062488586       -5.6077890300
 H        -8.1213681478       -3.9100169132       -1.9255456697
 H        -9.5445864024       -4.5574417952       -2.1842159180
 H        -9.5462281175       -3.1166765394       -1.0889420087
 H        -9.9221411284       -1.5588226237       -5.7944037359
 H       -10.3595385385       -3.1718847588       -6.2587108026
 H        -8.6867476438       -2.6593818602       -6.6279339168
 H        -8.5748973681       -4.8319453967       -5.9012837573
 H        -9.8187956110       -4.9480540088       -4.5980207342
 H        -8.0838352707       -5.0964887171       -4.2446438426
 H        -4.4306262843        4.0638616861       -6.0137722715
 H        -5.8686340084        3.2867957624       -6.9827688826
 H        -4.3591004884        2.4802022416       -7.0135764807
 H        -3.6170098366        2.7636259505       -3.5657469108
 H        -3.1619661718        1.6964896345       -4.7627633284
 H        -4.1811958656        1.1639027610       -3.5441200220
 H       -10.2995256025        6.0712015931       -2.2404980256
 H        -9.5888845432        7.4191524875       -3.0434219049
 H       -10.4311480462        7.4669849359       -1.5863368246
 H        -8.2494375736        8.3083537599        0.0024192984
 H        -7.7163723868        8.5327463051       -1.7051559106
 H        -6.5821296156        7.7837652309       -0.5628962181
 H        -7.7879276108        7.5200817898        4.4233758958
 H        -7.4664633568        6.1822876546        5.5692686916
 H        -8.6325160890        7.4609437628        6.0245903528
 H        -9.3937234798        4.9976664579        6.3514277519
 H       -10.4410674751        4.3537992243        4.8904683004
 H       -10.9167132383        5.6792936594        5.9432757757
 H       -15.5266238156        7.3408873791        2.2524956159
 H       -14.3525607342        8.3491755379        2.4528746461
 H       -15.6607092780        8.7348321372        3.3775878326
 H       -15.1932978993        6.6830978282        6.3350510449
 H       -16.0705181542        5.6938756843        5.2214174348
 H       -16.4675050188        7.3344081353        5.3435661030
 H       -15.5479973992        2.6478506696        0.1380211926
 H       -14.8430032195        4.0725198005        1.0074759955
 H       -15.9174268249        3.0911894959        1.9591328566
 H       -14.7206099066        0.7668060983        2.9025736248
 H       -13.0697107658        0.6060265314        2.6346552847
 H       -14.1745776952       -0.0068040874        1.3988005537
 Na      -11.3510641760        4.5561993410        1.8347789509
