117

 C       -12.6462442180        1.0188385408       -0.3825258241
 C       -12.6856508789        2.2399348671        0.4802766331
 O       -12.2041076798        3.2763047441        0.1304230578
 C       -13.8309282608        2.1397009841        1.6035350565
 C       -13.3448497968        2.8112942013        2.9552834499
 O       -12.1903874629        3.0151943399        3.0869264721
 C       -14.2605691100        3.3346888887        4.0922885783
 C       -13.7924027833        4.6826652781        4.5656658255
 C       -14.0761296090        5.8534704723        3.6733547641
 O       -13.9092700562        5.6468065941        2.4786651527
 C       -14.5236274246        7.3195649009        4.1402279391
 C       -13.1975005990        8.1132253602        4.7340907534
 O       -12.9129904532        7.8234903740        5.8777404636
 C       -12.2304531271        8.7220658137        3.7141888822
 C       -10.7955427033        8.4640161134        4.3027401349
 C       -10.4059084191        7.0456502956        3.9172561711
 O       -11.1581573675        6.4943047736        2.9742881523
 C        -9.2578605529        6.2247855495        4.4635630210
 C        -8.7395103366        5.4056403606        3.2499955688
 O        -9.2824192138        4.3713073691        2.9986118468
 C        -7.7489185091        5.9742397516        2.3743546057
 C        -7.5402481716        5.1718673390        0.9940096255
 C        -8.5690850354        5.6290139782       -0.0116106762
 O        -9.7875231265        5.6517417054        0.2623865797
 C        -8.3327872823        6.5717600850       -1.4237954079
 C        -7.4707599110        5.8361873364       -2.4110848683
 O        -6.2257949892        5.8399692041       -2.2743010122
 C        -8.1933596512        4.9017790462       -3.4828991733
 C        -7.1662436948        4.3451150600       -4.5180612551
 C        -6.5221316699        3.0013624756       -4.0511380151
 O        -6.8127015071        2.5247254292       -2.9606946516
 C        -5.6129508482        2.2576774825       -4.9734206731
 C        -6.4702856613        0.9910058137       -5.4453357518
 O        -7.2404180589        1.0313712578       -6.3846099889
 C        -6.2020577882       -0.2810236376       -4.5876859651
 C        -6.7959106615       -1.3899421056       -5.4529321047
 C        -7.2333320539       -2.6312218840       -4.5588787368
 O        -6.4780362158       -2.9437876225       -3.6671236884
 C        -8.7142685766       -3.0308694112       -4.5597519782
 C        -9.3020101663       -2.4312061812       -3.2128432717
 O        -9.7105277585       -1.2831569961       -3.1995100971
 C        -9.2868439046       -3.2913340330       -2.0043220415
 C        -9.6585807011       -2.3260249264       -5.6472174983
 C        -8.7006324734       -4.5530059456       -4.5124788562
 C        -4.8937649556        3.1338118904       -6.0774338743
 C        -4.4942961078        1.8787218385       -3.9911326379
 C        -9.6769738773        6.9680055269       -1.9873976401
 C        -7.6047697779        7.8093052550       -0.9101699226
 C        -8.0815784749        6.9756073534        5.1622474353
 C        -9.8428828234        5.1526729845        5.5142298522
 C       -15.0266637024        7.9641672043        2.8422013636
 C       -15.7119728937        7.3038615798        5.1504162016
 C       -14.9774330800        2.8242725165        0.7590408055
 C       -14.4685457462        0.7403528435        1.9339762545
 H       -12.3043928438        0.1387811733        0.1610708950
 H       -12.0132864669        1.3440879855       -1.2534338446
 H       -13.6291306658        0.7934029460       -0.4896098519
 H       -14.2900291205        2.6602927102        4.9601143339
 H       -15.2610953516        3.3949195200        3.6016686808
 H       -12.7263850794        4.6254508499        4.6693023350
 H       -14.0711205444        4.8251368407        5.6057266427
 H       -12.4671171111        9.7440079157        3.8130699812
 H       -12.4642787240        8.1646841935        2.8398480086
 H       -10.6700636561        8.4688351671        5.4161345460
 H       -10.0305728221        9.2018957381        3.9632341820
 H        -6.9041646051        5.8103245132        2.9561681893
 H        -7.9975706848        7.0390450759        2.1004434678
 H        -7.6276184473        4.0481210949        1.0649270739
 H        -6.5586850883        5.4167610456        0.6236089682
 H        -8.9102815336        5.5811949022       -3.8643105060
 H        -8.7412699569        4.0864687938       -2.9717694451
 H        -6.3570226058        5.1387357773       -4.6610858383
 H        -7.6269310695        4.2759304823       -5.5038151078
 H        -6.7187718934       -0.2046451655       -3.5910384957
 H        -5.1724373818       -0.5261353822       -4.4397140163
 H        -6.1804128941       -1.7359601993       -6.3271382591
 H        -7.8001124416       -0.9578774187       -5.6822415442
 H        -8.2856016065       -3.6964390611       -1.6877254664
 H        -9.7343623624       -4.2662810320       -2.2458314462
 H        -9.8614793649       -2.7628449655       -1.1940351256
 H        -9.7317366159       -1.2749707568       -5.4513028674
 H       -10.6588189525       -2.6144238293       -5.6725410106
 H        -9.3330028037       -2.5570354441       -6.6487264696
 H        -8.3069723260       -4.8969438781       -5.4402536081
 H        -9.6176733857       -5.1187826685       -4.3133015507
 H        -7.8819253651       -4.7355921271       -3.8437746437
 H        -4.2847538519        3.8783658334       -5.6022743081
 H        -5.6701590150        3.7419935274       -6.6000699423
 H        -4.3896103766        2.5745534240       -6.8145854355
 H        -3.6479367993        2.5643600230       -4.0958198400
 H        -3.8782580767        0.8765320827       -4.1341746973
 H        -4.7739260454        2.0099040140       -2.8971329286
 H       -10.4109260153        6.2060929562       -2.3834214780
 H        -9.5248816062        7.7910049393       -2.6829122679
 H       -10.4273222067        7.3653293779       -1.3152979976
 H        -8.1569374206        8.0313554439       -0.0328183304
 H        -7.6562341407        8.5487281644       -1.6764205830
 H        -6.5419434544        7.5370555272       -0.7013454128
 H        -7.9118126354        7.9025079162        4.6100039219
 H        -7.2722664551        6.3108481467        5.2631483106
 H        -8.2948834690        7.1273945618        6.2403046148
 H        -9.1139844023        5.0405641939        6.2951944215
 H       -10.2305254229        4.3293042996        5.0142861714
 H       -10.7294272693        5.5869082145        5.9538863324
 H       -16.0377351326        7.5314535404        2.6063262281
 H       -14.5440303926        7.7026810043        1.8766133531
 H       -14.8192768014        9.0199694798        2.8363911922
 H       -15.3908752820        7.7147747425        6.0878858510
 H       -16.1797960900        6.4426421094        5.4290047481
 H       -16.4874450888        7.9581918645        4.7325755331
 H       -15.1683105811        2.2397789198       -0.1146766194
 H       -14.7279858424        3.8659864772        0.4967331167
 H       -15.8266573473        2.9152275751        1.4097001484
 H       -15.2695280758        0.9584663258        2.6315603420
 H       -13.8833127095        0.0761043013        2.5050748231
 H       -14.8355768557        0.1860950946        1.0636525627
 Na      -11.0998907560        4.4312301610        1.6876157107
