117

 C       -12.4430849837        0.4263139084        0.0578075287
 C       -12.7309834665        1.9165402232        0.4237455237
 O       -12.0225276707        2.8140697945        0.0848724337
 C       -14.1061771356        2.1605373994        1.4552078793
 C       -13.6377703315        2.9935059820        2.7340345123
 O       -12.4059284394        2.9505678085        2.8963649734
 C       -14.5968612628        3.4828353436        3.8820054997
 C       -14.3644922016        4.9476080872        4.2286346745
 C       -14.2114048120        6.0373840273        3.2029269243
 O       -14.0767244002        5.8410166651        1.9952007676
 C       -14.3234868243        7.6315108706        3.8296547081
 C       -12.9446168675        8.1258878273        4.5136986108
 O       -12.6871476045        7.9207456600        5.6861521031
 C       -11.9751116884        8.9443670661        3.5457524354
 C       -10.5992063538        8.4509130361        3.8288838589
 C       -10.4589728060        6.8534793435        3.7821803673
 O       -11.4005946561        6.2318672459        3.3754126806
 C        -9.1228132566        6.2672916883        4.2652909247
 C        -8.4552470087        5.3100863903        3.2520799373
 O        -8.7365399103        4.0895848929        3.2322988747
 C        -7.2194717003        5.8585611762        2.3884439132
 C        -7.4213547273        5.3823227863        0.9556885447
 C        -8.6017256848        5.9132259631        0.0762091832
 O        -9.8227408231        5.7861220364        0.4551862468
 C        -8.3351674768        6.6355463367       -1.2316388882
 C        -7.6820150968        5.7255898814       -2.3358519133
 O        -6.4440379171        5.6707409266       -2.3337967013
 C        -8.4934976921        4.9183335634       -3.4016416060
 C        -7.6279253304        3.9864200761       -4.3801825278
 C        -6.7304228976        2.8848595345       -3.6978667525
 O        -6.7150689777        2.5782737704       -2.4900443371
 C        -5.6267095229        2.1156695805       -4.6655360966
 C        -6.3410404577        0.7981056343       -5.3979106008
 O        -6.7608095701        0.8894103972       -6.5274059697
 C        -5.9791124515       -0.5756163957       -4.8950609486
 C        -6.6748358235       -1.7877712468       -5.5390815810
 C        -7.3790368956       -2.7628242673       -4.3653143091
 O        -6.7525765274       -3.1442132170       -3.4314836318
 C        -8.8769265085       -3.1458297502       -4.4389616515
 C        -9.4014827736       -2.2978585619       -3.0792887322
 O        -9.6508925834       -1.1258953023       -3.1722945863
 C        -9.4450643803       -2.9403737151       -1.6964331226
 C        -9.6037027724       -2.7711271501       -5.6940656015
 C        -9.1142368411       -4.7669585196       -4.1186457172
 C        -5.0881333749        3.0873540536       -5.8749911219
 C        -4.4761821000        1.7084739040       -3.8474434653
 C        -9.5238614100        7.4052017099       -1.8958490663
 C        -7.2850740737        7.7874219807       -1.0542551931
 C        -7.9895378845        7.3324357209        4.8047571579
 C        -9.5514190939        5.3806610371        5.4981635514
 C       -14.7933694314        8.6001377107        2.6841560707
 C       -15.4332759914        7.8187640748        4.8961931841
 C       -15.2045392148        3.0043682792        0.8063822007
 C       -14.7428178935        0.9217613974        2.1206540575
 H       -11.4826480441        0.1645705315        0.4703822191
 H       -12.3943842945        0.3115473238       -1.1256249367
 H       -13.1648006236       -0.1718227236        0.5692583461
 H       -14.3822271654        2.9497165680        4.7225944509
 H       -15.5781304247        3.3199843573        3.4497347178
 H       -13.4653857570        5.0748839962        4.8544312368
 H       -15.0590284846        5.1641582759        4.9803884477
 H       -11.9781722316        9.9132809737        4.0771746371
 H       -12.4379842731        8.6696989648        2.5892351880
 H       -10.3811788642        8.6989307153        4.8593675630
 H        -9.7944282951        8.9569501199        3.3680016825
 H        -6.3387138652        5.3654099500        2.6423806674
 H        -7.1122717219        7.0238716999        2.4768633522
 H        -7.6826262537        4.2920467510        1.2037800836
 H        -6.4493983623        5.4456564627        0.4819151543
 H        -9.0807371821        5.6701053921       -3.9270220612
 H        -9.1676849525        4.2829758645       -2.7890016007
 H        -7.0976135440        4.6848457195       -4.9837338216
 H        -8.3302863068        3.4637575453       -5.0580479458
 H        -6.0948741613       -0.6611113381       -3.7943990280
 H        -4.9484449153       -0.6718459548       -5.1548189556
 H        -5.9765811038       -2.5544527105       -5.9908125149
 H        -7.3819761134       -1.5137847018       -6.2399912000
 H        -8.5563583802       -3.5636290425       -1.4906882526
 H       -10.3279735729       -3.5966241068       -1.6035959636
 H        -9.4738623027       -2.2247977153       -0.8880908874
 H        -9.6573077950       -1.6070800255       -5.6990444467
 H       -10.6189008203       -3.0129702045       -5.5216880137
 H        -9.4275880154       -3.2760757156       -6.7392985960
 H        -8.7051311174       -5.4789985622       -4.7440819953
 H       -10.2493056436       -4.8213508942       -4.1118812230
 H        -8.7888048795       -4.9836523056       -3.0558032861
 H        -4.8035097652        4.1283538835       -5.6760674544
 H        -5.9163791535        3.2548955683       -6.6304625560
 H        -4.1872278499        2.5378422806       -6.2865978219
 H        -4.2756689618        2.4408262882       -3.1117319122
 H        -3.6458451702        1.8480834782       -4.5731594363
 H        -4.3995558893        0.7626067259       -3.3422263785
 H       -10.5606298051        6.9965097401       -1.9497393994
 H        -9.3497710877        7.6671193320       -2.8980457637
 H        -9.7109946841        8.3556342473       -1.4510479572
 H        -7.7559466425        8.5572024745       -0.3877246835
 H        -7.0244891975        8.1074770462       -2.0539607966
 H        -6.4570996422        7.3019058396       -0.5932219721
 H        -7.5580070830        7.9825543779        3.9791426761
 H        -7.3219513767        6.7155217056        5.2822244134
 H        -8.4231602019        8.0237576048        5.5012480095
 H        -8.8827795701        4.5491796259        5.4788038440
 H       -10.6273528425        5.1040427387        5.3522107673
 H        -9.5306543861        5.9658857422        6.4863064697
 H       -15.7897537578        8.2760301675        2.3036625989
 H       -14.1086819741        8.6793514458        1.9201873856
 H       -14.7314765924        9.6379688907        2.9730865762
 H       -15.4704585793        7.0211775408        5.6540554079
 H       -16.4242990556        7.7366548157        4.4041046592
 H       -15.3933720205        8.8506388298        5.4074568781
 H       -15.2482866574        2.6509704996       -0.2632656467
 H       -14.9969071234        4.1050367676        0.9387039638
 H       -16.1947935886        2.7535831278        1.1849770373
 H       -15.3295168465        1.2030067022        3.0121406865
 H       -14.0699553080        0.1032151526        2.4789951245
 H       -15.4705437359        0.4814343066        1.4459167800
 Na      -11.1634651942        4.4624412113        1.7964597816
