117

 C       -12.6375703170        0.4682548463        0.2689338800
 C       -12.8394650596        1.9205980244        0.6772847689
 O       -12.1368455127        2.7696356093        0.2420177518
 C       -14.0957725319        2.2067770750        1.4587428272
 C       -13.5895654990        2.9683065757        2.7974348708
 O       -12.5001359300        3.1501549813        3.1455495283
 C       -14.6431835771        3.5427272432        3.7606153477
 C       -14.4010809181        4.9868413541        4.0984548419
 C       -14.2879493623        6.2887476131        3.0779769184
 O       -14.0140581832        6.1962637842        1.8877436234
 C       -14.4216267495        7.7051107958        3.7073130605
 C       -12.9478748997        8.1014164712        4.3302230605
 O       -12.6176761585        7.8466549560        5.4666259316
 C       -11.9338203809        8.8250141958        3.4354968750
 C       -10.4686338465        8.5142819520        3.7928459031
 C       -10.3537125066        6.9153231536        3.7556179677
 O       -11.3984751080        6.1774360869        3.4528424176
 C        -8.9801355675        6.2183883005        4.3086486556
 C        -8.3540625747        5.3827783847        3.2493419537
 O        -8.6740689353        4.2388041550        3.2257447555
 C        -7.2037451268        5.7863722115        2.2982819271
 C        -7.4441957496        5.3518419100        0.7303454420
 C        -8.6204551711        6.0549397744        0.0863711994
 O        -9.7773366691        5.8031837810        0.4681706651
 C        -8.2432860094        6.7578354621       -1.2795689953
 C        -7.5700691756        5.6449862999       -2.3391597616
 O        -6.4156328054        5.5074838912       -2.3409596161
 C        -8.5694129284        4.7752068987       -3.2579520715
 C        -7.7905841801        3.7548577584       -4.2093169827
 C        -6.8106945899        2.7032801866       -3.6604485148
 O        -6.6803316899        2.4933087006       -2.5214289532
 C        -5.7353548395        2.0652915178       -4.6695716308
 C        -6.1329438591        0.7311472845       -5.5430003796
 O        -6.8423638969        0.7963124326       -6.4949859392
 C        -5.8458936526       -0.6655575199       -4.7407015767
 C        -6.8961464570       -1.6439979269       -5.2714812173
 C        -7.3675165874       -2.8324945121       -4.2817704308
 O        -6.6817705001       -3.1983060926       -3.3511830755
 C        -8.9969986751       -3.1458166061       -4.2454356982
 C        -9.3628189045       -2.3026668179       -3.1003127795
 O        -9.7108088833       -1.1633438403       -3.3861896892
 C        -9.4053692942       -2.9598586348       -1.8170089970
 C        -9.5436736294       -2.7700563718       -5.6128369954
 C        -9.3027188538       -4.5835153281       -3.8825772586
 C        -5.1925322822        3.1328909227       -5.7017924845
 C        -4.5158285904        1.7674487818       -3.7031370652
 C        -9.5245317925        7.4626013834       -1.9577928994
 C        -7.1075866793        7.8455786074       -1.0033509877
 C        -7.9580433402        7.2975819506        4.6456801766
 C        -9.4426738320        5.4020966473        5.5017920270
 C       -14.6547797721        8.6481969672        2.5181728317
 C       -15.4388159243        7.8148219795        4.8623247568
 C       -15.0899711593        2.8161221939        0.4383642155
 C       -14.8330792659        0.9338660089        2.0864369461
 H       -11.6332936497        0.0900054040        0.5858343618
 H       -12.6589485147        0.5194049931       -0.7963214318
 H       -13.4437589490       -0.1553508744        0.6167571227
 H       -14.3600950107        3.0582982962        4.6826611072
 H       -15.6164058630        3.3280903388        3.4223995635
 H       -13.5127158889        5.0657174057        4.5968863555
 H       -15.0381278585        5.1313298355        4.9475882869
 H       -12.1824971710        9.8116160778        3.7087717235
 H       -12.2329559736        8.3700777859        2.5140511558
 H        -9.9458983886        8.8849949120        4.6708964424
 H        -9.7782169561        8.8184544051        3.0262830160
 H        -6.2682574244        5.3808837253        2.6299056678
 H        -7.0925753907        6.8996031064        2.3016778036
 H        -7.6396472557        4.2259611187        0.8254928585
 H        -6.4969869155        5.5933810462        0.2008817989
 H        -8.9498438956        5.4816822398       -3.9326621883
 H        -9.3826488475        4.3491280285       -2.6874178848
 H        -7.4203333268        4.5142089360       -4.9617821725
 H        -8.5957558410        3.2778083755       -4.7110300813
 H        -5.8891882268       -0.5274359107       -3.6372289652
 H        -4.9244033050       -1.1179934151       -5.0392506045
 H        -6.5159915257       -2.1171949771       -6.1889891888
 H        -7.9099049349       -1.1419272559       -5.5938607135
 H        -8.5439574458       -3.5805085922       -1.4765863596
 H       -10.3207981599       -3.5370196985       -1.8562128055
 H        -9.5470775518       -2.1965822236       -0.9225565737
 H        -9.5233274383       -1.7119093848       -5.6988181627
 H       -10.6582342576       -3.0857984469       -5.6709858614
 H        -9.1348051244       -3.3204174506       -6.4799188050
 H        -9.1737352672       -5.2510668623       -4.7710962788
 H       -10.3318626880       -4.6404465607       -3.5212318957
 H        -8.6597734465       -4.9098197449       -3.1139677993
 H        -4.5042706294        3.8656961564       -5.2153377175
 H        -5.8384439655        3.8622155283       -6.2716784158
 H        -4.5029470842        2.5405607357       -6.2573865080
 H        -4.4122765824        2.6252986688       -3.0325185570
 H        -3.5195646490        1.6565581575       -4.2575512298
 H        -4.6909896213        0.8026282649       -3.0041735691
 H       -10.3280447220        6.7634153705       -2.3187194701
 H        -9.3309223942        7.9458355752       -2.9201386099
 H       -10.0589212942        8.2475600193       -1.4138106277
 H        -7.5449079263        8.4461615682       -0.2776497369
 H        -6.8363922110        8.3783174106       -1.8894651121
 H        -6.2422077280        7.2300771037       -0.5415890912
 H        -7.9028591825        7.9428027408        3.9140237246
 H        -7.0343046440        6.6728608648        4.6305783212
 H        -8.0754899370        7.8761978562        5.5964155594
 H        -8.7052468515        4.5503855966        5.6045231453
 H       -10.3833248238        5.0056172158        5.2482654521
 H        -9.5573704811        5.9957425577        6.3785337302
 H       -15.5601182621        8.2911607495        1.9504723148
 H       -13.7086221951        8.6016063696        1.9603721377
 H       -14.7292047787        9.6983290392        2.6279676775
 H       -15.7182850832        6.8160420444        5.2133842426
 H       -16.3438598993        8.2849747351        4.6343889174
 H       -14.9667512092        8.3539217766        5.7166523436
 H       -14.9119164605        2.2321322558       -0.4754982570
 H       -14.9497983663        3.9415146248        0.3266454147
 H       -16.1910346010        2.5343179857        0.6688682078
 H       -15.7319437843        1.2611721818        2.6618561248
 H       -14.2810205687        0.3340556129        2.7422524327
 H       -15.2865670922        0.2912401530        1.2672360498
 Na      -11.2125514427        4.3426061188        1.8516710334
