117

 C       -12.4918174381        0.3728779487        0.2985165231
 C       -12.7418130497        1.7125220699        0.9353362515
 O       -11.9016368761        2.6055586608        0.6869169311
 C       -14.1844925486        2.1066968167        1.5746046639
 C       -14.0012557183        3.1856673001        2.6861093972
 O       -12.8748559366        3.1742279890        3.2369123654
 C       -15.0399289292        4.1906021059        3.2752559018
 C       -14.3121061571        5.3682669774        4.0279154759
 C       -14.2188667434        6.4312192688        3.0096515163
 O       -13.9747251930        6.0312782425        1.8785047268
 C       -14.4035732663        7.9603714553        3.4487722475
 C       -12.9727708099        8.1201316367        4.0444500616
 O       -12.6091497029        7.6289174045        5.0910558033
 C       -11.7990771767        8.5970827555        3.1148835035
 C       -10.4353743252        8.4566841018        3.6907590588
 C       -10.1666961757        6.8522790202        3.7033195179
 O       -10.9575888727        6.0813220453        3.3571444457
 C        -8.7032432763        6.2799536566        4.2268362633
 C        -8.2821553961        5.2643382613        3.0879354914
 O        -8.9285726261        4.2328181666        2.8372998727
 C        -7.3502974487        5.7990291050        2.0159306009
 C        -7.4603626836        5.1028979911        0.6810663035
 C        -8.5321634160        5.8566848887       -0.1547490562
 O        -9.6620658978        5.9840832945        0.2621577118
 C        -8.1355734041        6.5816812436       -1.5088320303
 C        -7.5217354199        5.4780211867       -2.3541645640
 O        -6.2633101981        5.3191743831       -2.3268450241
 C        -8.5624469550        4.3801836802       -2.8637775231
 C        -8.0536541258        3.4273707700       -4.0455406868
 C        -6.8962626544        2.6090637918       -3.5161391894
 O        -6.9950371950        2.2027714194       -2.3233672526
 C        -5.7175583267        2.1661626898       -4.3352860390
 C        -6.1952524466        0.7699155895       -5.1084854058
 O        -6.6919709109        0.8614504037       -6.2177224696
 C        -5.9344294842       -0.6234365783       -4.5129353345
 C        -7.2693069925       -1.4201464988       -4.8235063774
 C        -7.4871793320       -2.7664446771       -4.1185939226
 O        -6.6854485002       -3.3414821787       -3.4780501577
 C        -9.0426525890       -3.2529734721       -4.1223368396
 C        -9.4770887558       -2.1552927896       -3.0818282736
 O        -9.9536642115       -1.0883720519       -3.4352146292
 C        -9.4919239485       -2.4128498284       -1.5958952667
 C        -9.6402789243       -2.9073578138       -5.5095317643
 C        -9.1265613037       -4.7205923964       -3.9131717111
 C        -5.3049503876        3.0983958433       -5.5996508257
 C        -4.4372761490        1.7306177813       -3.5732284504
 C        -9.3588309259        7.3645821949       -1.9683381898
 C        -7.0709192808        7.6992367497       -1.0880791367
 C        -7.7486284869        7.3871605778        4.6849677200
 C        -9.0451733926        5.4532665445        5.4998778159
 C       -14.9276693778        8.9500595538        2.3257975864
 C       -15.4241442064        8.1479094165        4.6481514545
 C       -14.9087169138        2.8927846458        0.4533302845
 C       -15.1064361502        1.0195122461        2.1865048125
 H       -11.4750855197        0.1257939741        0.5217533445
 H       -12.6741987485        0.4522764479       -0.8714099885
 H       -13.2604886708       -0.3667322313        0.5893149167
 H       -15.6277714805        3.5077373214        3.9593177257
 H       -15.5884415605        4.5945445724        2.3583753463
 H       -13.3283219421        5.1984569557        4.6436043842
 H       -14.9655261878        5.7217745824        4.8484248612
 H       -11.9996855399        9.6632565283        2.9069879054
 H       -12.0006150105        7.8991294109        2.2876186565
 H       -10.1638232507        8.7910133186        4.6966686353
 H        -9.7035905860        9.0486414917        3.0604479839
 H        -6.3032261512        5.7507175406        2.4360984528
 H        -7.4218751667        6.9364021327        1.9932081461
 H        -7.6579932188        4.1017994963        0.9592627412
 H        -6.5332227063        5.2179041076        0.1685985118
 H        -9.5538822113        4.9279846201       -3.0643210549
 H        -8.6597562089        3.7118378121       -1.9769026578
 H        -7.7904150246        4.0713855926       -4.8227765917
 H        -8.9904172546        2.8819550050       -4.3519420627
 H        -5.7539056666       -0.5203212578       -3.4424255573
 H        -5.0362729091       -1.0670675928       -5.0271573315
 H        -7.3364915726       -1.5734441675       -5.9722490065
 H        -8.1259801910       -0.8871210250       -4.6892971432
 H        -8.5522730927       -2.7202249953       -1.1826635584
 H       -10.2800243901       -3.1629707637       -1.3304197848
 H        -9.6967503603       -1.5365794627       -1.1077018652
 H        -9.8534546728       -1.8755268148       -5.7882017823
 H       -10.3666087524       -3.5583078310       -5.7267146161
 H        -8.7752638761       -3.1696269177       -6.1454082786
 H        -9.1827246289       -5.1074893203       -4.8673501162
 H        -9.9307050631       -5.0614620865       -3.2601404122
 H        -8.1580829657       -5.0327740672       -3.4282573214
 H        -5.0600498678        4.1026136202       -5.4210323070
 H        -6.2231082663        3.1827011392       -6.1239830849
 H        -4.5334058720        2.7144161147       -6.2712873399
 H        -3.6537070226        2.4757726433       -3.6562391559
 H        -4.0568107829        0.8020808357       -4.0467650470
 H        -4.5885705829        1.4780929100       -2.5633679044
 H       -10.1265037465        6.8217940770       -2.5414668552
 H        -9.2475918373        8.1829197544       -2.6747141161
 H        -9.8033368017        7.8711496983       -1.0896947799
 H        -7.3943172254        8.2766520004       -0.1719227343
 H        -7.1118882984        8.4181827098       -1.9224467833
 H        -6.1717683121        7.2152164443       -1.0087262005
 H        -7.7241227274        8.4100654923        4.0331365961
 H        -6.7305460924        7.0059181476        4.7719268096
 H        -8.1727628436        7.6914001462        5.6395470399
 H        -8.1359209429        5.3648665827        5.9696230141
 H        -9.3459937233        4.3954851919        5.2652501733
 H        -9.7603489576        6.0786433708        6.0900904937
 H       -16.0060370967        9.0610312370        2.3347319128
 H       -14.4042099188        8.7983705705        1.4056007313
 H       -14.6252062919       10.0364296561        2.5495325022
 H       -16.4442538140        8.0479047631        4.3388795119
 H       -15.2618142461        9.1884655779        5.0469845582
 H       -15.1743504640        7.3843276925        5.3891271196
 H       -15.3956789448        2.3235240182       -0.3302337299
 H       -14.1386291068        3.5585727643        0.1624983487
 H       -15.6575431843        3.4453649232        0.8782557148
 H       -16.0296576576        1.4207728294        2.5337963067
 H       -14.5810411242        0.6140323436        3.0966421587
 H       -15.3859606176        0.2253508226        1.5800516873
 Na      -10.9356995704        4.4199316898        1.8646720690
