117

 C       -12.7275688456        0.3281594453        0.5395484307
 C       -12.8070605647        1.7732147777        1.0612797496
 O       -11.7761774661        2.3477173909        1.3614998672
 C       -14.0911551131        2.3517024841        1.4626486015
 C       -13.8882976377        3.2827061131        2.7144632258
 O       -12.9360321827        3.3667048701        3.4113071210
 C       -15.1358979367        4.1357687339        3.1683350583
 C       -14.8302155230        5.4973869803        3.7256652254
 C       -14.4104057859        6.6549445703        2.8093085711
 O       -13.9108021809        6.5224573730        1.7225955837
 C       -14.4094261668        8.0229006499        3.3315040817
 C       -12.8720702105        8.0694717693        3.7676975442
 O       -12.6491934653        7.8205947870        4.9127691743
 C       -11.7086155851        8.6379135887        2.8641148884
 C       -10.4435122811        8.3830555443        3.6961008913
 C       -10.0666627245        6.8885021334        3.7067868582
 O       -10.9132483734        6.0092197835        3.3148381002
 C        -8.6247254322        6.3750346543        4.1275022801
 C        -8.1876279353        5.3594879892        2.9893760994
 O        -8.8005776981        4.3326490820        2.7903405361
 C        -7.1190283712        5.7455023978        2.0035180885
 C        -7.5005897694        5.1103340255        0.6321885564
 C        -8.5971393589        5.7394829888       -0.1638868583
 O        -9.8035269696        5.7264707641        0.1370185047
 C        -8.0941312297        6.4784134904       -1.4381232161
 C        -7.5960051589        5.2141934676       -2.2855123008
 O        -6.4849501143        5.2049601308       -2.6869565355
 C        -8.5750744273        4.1680745461       -2.7209843251
 C        -7.9245543071        3.3178731790       -3.7947196176
 C        -6.8283253225        2.3696838454       -3.2656436684
 O        -6.9000872322        1.7446016543       -2.2435633049
 C        -5.6122782192        2.1734995682       -4.2266908931
 C        -6.1654834398        0.8728601694       -4.9622296509
 O        -6.7584704626        0.8594824299       -6.0286941055
 C        -6.3224496442       -0.5043478282       -4.1489073600
 C        -7.4232764154       -1.3290781546       -4.6715827712
 C        -7.5865253453       -2.6684904161       -4.0463684503
 O        -6.5198271265       -3.2256343189       -3.7838666969
 C        -9.1222516390       -3.2127971592       -3.9738491801
 C        -9.7655480220       -2.1366349979       -3.0804027627
 O       -10.4158178685       -1.1574180561       -3.3898616714
 C        -9.5656212972       -2.3579744804       -1.6199787197
 C        -9.8130835623       -3.0968696637       -5.3813297836
 C        -9.0654587166       -4.6200419264       -3.3618274260
 C        -5.4086643121        3.2879529949       -5.1702616558
 C        -4.2801699839        1.9641667027       -3.2259781852
 C        -9.1784470421        7.0886596571       -2.2200316939
 C        -6.8447647672        7.4346434405       -1.2504459113
 C        -7.4969955104        7.3865707592        4.4237145878
 C        -8.8236199450        5.3242021526        5.3987513773
 C       -14.5317171847        8.9775775828        2.0549396010
 C       -15.3067108926        8.4270789002        4.5914857295
 C       -14.9582625393        2.8606839476        0.1898620452
 C       -14.9380883648        1.1651665992        1.9996158049
 H       -11.6353920033        0.1377741524        0.5042097566
 H       -13.1856268007        0.2993942480       -0.3589208465
 H       -13.4298152150       -0.3791079625        1.0369572002
 H       -15.4901315144        3.5062609980        3.9471113955
 H       -15.7644603964        4.1374121063        2.3506388476
 H       -14.1318360768        5.4206585027        4.4911256227
 H       -15.6946940382        5.7755162377        4.3443905691
 H       -11.9052419497        9.7201066640        2.7054271004
 H       -11.6460044304        8.0087148693        1.9300568219
 H       -10.1762574048        8.8308126944        4.6612705114
 H        -9.6401724778        8.7420931587        3.0660342423
 H        -6.1239542186        5.5629036935        2.4114104172
 H        -6.9507452025        6.7797062229        1.8183036369
 H        -7.8273134866        4.0395853089        0.7731760209
 H        -6.5782241547        5.1196701053       -0.0163925937
 H        -9.3669392168        4.7493604444       -3.1069496904
 H        -8.9234578389        3.4997246825       -1.9239610193
 H        -7.4872951563        4.1323869702       -4.4723090961
 H        -8.7570486752        2.8931345933       -4.3083758722
 H        -6.6752600050       -0.2773694964       -3.1463590553
 H        -5.3209679779       -0.8819997293       -4.1352820826
 H        -7.4805007869       -1.3174452581       -5.7080377855
 H        -8.4492313651       -0.8467131532       -4.4772350426
 H        -8.5486997632       -2.5087784756       -1.2762243997
 H       -10.2501772356       -3.1540442681       -1.4045802147
 H        -9.9634718083       -1.5097924648       -0.9922996551
 H        -9.7795574233       -2.0725854994       -5.8060958099
 H       -10.8981138534       -3.5511709652       -5.1724466536
 H        -9.2257687839       -3.6254284552       -6.1387310827
 H        -8.4081602541       -5.1095363686       -4.1907428847
 H       -10.0257674249       -5.1402252411       -3.3114300833
 H        -8.6397205986       -4.6581919660       -2.3962421664
 H        -5.4646202537        4.3669219740       -4.8171877206
 H        -6.1692830069        3.2215528372       -5.9852488100
 H        -4.4253340062        3.2128708933       -5.6431359287
 H        -3.7663329689        3.0036839111       -2.9461190813
 H        -3.6684377963        1.2163815679       -3.6524224165
 H        -4.7351182136        1.3845087943       -2.4189284862
 H        -9.9995181839        6.4271715078       -2.2317982710
 H        -9.0067189711        7.1190636446       -3.2948099593
 H        -9.4823406302        8.0730994137       -1.9681331045
 H        -7.1865018582        8.1994069661       -0.5949267864
 H        -6.6858960904        7.9654447920       -2.1971163294
 H        -5.9631697853        6.8287442979       -0.8811523453
 H        -7.0438255916        7.8324748202        3.5453626702
 H        -6.6477396183        6.9793732700        4.9497846690
 H        -7.9716888119        8.1778812037        4.9358972812
 H        -7.8137598958        5.1550384932        5.9569642357
 H        -9.0670663465        4.3256789471        5.0402857400
 H        -9.5230526893        5.8607188406        5.9959512639
 H       -15.5470463123        9.2500792778        1.8546425465
 H       -14.0367026843        8.5121536595        1.1821552921
 H       -14.2056224438        9.9520318107        2.2604199053
 H       -16.1564073218        9.1013843730        4.2317392374
 H       -14.6428658250        9.0804477648        5.1813442548
 H       -15.7387803962        7.5691752296        5.0973687119
 H       -14.9479438386        2.0465156225       -0.5187499328
 H       -14.5463134370        3.7673587537       -0.2640569589
 H       -16.0174934347        2.8770098399        0.5878287454
 H       -15.8727094910        1.5742763516        2.4307423411
 H       -14.4112334151        0.6402958937        2.7489494420
 H       -15.3286282869        0.3976270318        1.2654421160
 Na      -10.9059514359        4.3643164253        1.6830009605
