117

 C       -12.8522443672        0.1211519384        1.6600915540
 C       -12.8377353801        1.6782798716        1.5786313315
 O       -11.8388359981        2.2512693833        2.0242314129
 C       -13.9700732019        2.7126617252        1.1874106319
 C       -13.8495645445        4.0599822734        2.1584947273
 O       -12.8292391325        4.3346198247        2.8402104789
 C       -15.2446002598        4.6560846635        2.5769240885
 C       -14.9474243738        6.0673272823        3.1748922350
 C       -14.2753079385        7.0363106115        2.2011410387
 O       -13.7491818571        6.6706983251        1.2017217649
 C       -14.1710146361        8.7029769414        2.5653199785
 C       -12.7596650385        8.6639115066        3.1842387955
 O       -12.6219191280        8.3168093533        4.3610315803
 C       -11.3080619274        8.9497444111        2.5569784787
 C       -10.2070659507        8.3360299757        3.5637698189
 C        -9.7292130186        6.9050858084        3.4144104335
 O       -10.6391622409        6.1403588895        3.1686827982
 C        -8.3458887884        6.3692951484        3.9907355777
 C        -7.9520224648        5.2828338769        2.8911955790
 O        -8.3627757230        4.0017899211        3.0817002166
 C        -6.8799504607        5.3168599158        1.7381998211
 C        -7.3477692129        4.5417364545        0.5525526950
 C        -8.5227278613        5.1818326895       -0.1985804505
 O        -9.7329711621        5.1146095456        0.2841348666
 C        -8.4375985869        5.9128926297       -1.5163917588
 C        -8.0033022506        4.9286063360       -2.8888961959
 O        -7.0620218084        5.2639428885       -3.5645306716
 C        -8.9243698643        3.6225642528       -3.0045765182
 C        -8.1170200495        2.4113146867       -3.5508942084
 C        -6.7300028853        2.2328916441       -2.7913171549
 O        -6.5750060070        2.7843526400       -1.7749645608
 C        -5.5282636388        1.5911463904       -3.6442147553
 C        -6.1292167353        0.7524014792       -4.7090168193
 O        -6.1001592511        1.1585443203       -5.8368837940
 C        -6.4357488190       -0.7212306441       -4.4791543949
 C        -7.8032813794       -1.1755276015       -4.1424758672
 C        -7.9780017448       -2.6617572367       -3.6171120787
 O        -7.1647376481       -3.5086026610       -3.8403522236
 C        -9.4708615883       -3.3053140094       -3.3234011027
 C       -10.3724290521       -2.2083524835       -2.6494984610
 O       -11.4654180978       -1.8941474460       -3.0691050714
 C        -9.6694701075       -1.6606260539       -1.4296879299
 C        -9.9931125807       -3.8657815120       -4.6736205645
 C        -9.0343186967       -4.5551839500       -2.5354486100
 C        -4.7226972358        2.7998678481       -4.1396879888
 C        -4.5682130859        0.7449055068       -2.5705090912
 C        -9.7152989952        6.7362188356       -1.8709438987
 C        -7.3170333396        6.9254322632       -1.1519135067
 C        -7.3851928476        7.5164152657        4.2296839948
 C        -8.7613526292        5.5997092331        5.3263537343
 C       -14.1575171706        9.6132100351        1.3193661075
 C       -15.0435068120        9.1158111690        3.7216622353
 C       -14.1286634041        3.0225228322       -0.3462492574
 C       -15.3757425347        1.9597525509        1.4712133357
 H       -13.9144791529       -0.1597089666        1.7764897691
 H       -12.0852473735       -0.2245877125        2.3004889360
 H       -12.6294893779       -0.3684026111        0.6111779702
 H       -15.7750485898        3.8685280669        3.2017495619
 H       -15.8431193584        4.7277979807        1.5931092690
 H       -14.2592534096        5.9334082157        4.0350340168
 H       -16.0052966197        6.4214083537        3.4987896937
 H       -11.0783736985       10.0172084679        2.3764893262
 H       -10.9953738556        8.5703566921        1.5173796815
 H       -10.6289630553        8.3300134178        4.6145099365
 H        -9.4525142619        9.1040313384        3.6838814348
 H        -6.0427227250        4.8091962256        2.2185521370
 H        -6.4871771294        6.3512710337        1.3825425860
 H        -7.4359947372        3.5004819905        0.7704641316
 H        -6.5973366759        4.5827581220       -0.1819829609
 H        -9.7565388712        3.8721537512       -3.6190945630
 H        -9.4072374305        3.3534340947       -2.0331822279
 H        -8.0782710696        2.4146085792       -4.7089015389
 H        -8.6813387802        1.5843198819       -3.2500407600
 H        -5.6108650974       -1.1861453103       -3.8491794235
 H        -6.2739073028       -1.1941508422       -5.4416352646
 H        -8.4930566503       -1.2009149924       -4.9365834176
 H        -8.4131264904       -0.6166812198       -3.3653125638
 H        -8.9309568689       -2.2225423847       -0.8581347497
 H       -10.5015598173       -1.5101588423       -0.7541746818
 H        -9.2643257270       -0.6220530255       -1.6715282994
 H       -10.7913568417       -3.3551233903       -5.1236645245
 H       -10.4081135803       -4.8181581489       -4.4294319604
 H        -9.1821434356       -4.1049006954       -5.2243167095
 H        -8.2956177888       -5.1080367740       -3.2305491575
 H        -9.8637865342       -5.1756639389       -2.2876241582
 H        -8.4183762006       -4.2256125172       -1.7683026957
 H        -4.7622154256        3.7208730208       -3.4936877071
 H        -5.0209439228        3.0913225393       -5.1187403964
 H        -3.7468237821        2.4915934529       -4.3671243468
 H        -3.6848253563        1.3677733956       -2.1765626627
 H        -4.2638049281       -0.1056648342       -3.0859574026
 H        -5.2281807766        0.5814666389       -1.8279561542
 H       -10.3666596496        6.0605641483       -2.4787365462
 H        -9.5387303440        7.7532019887       -2.3729073544
 H       -10.4689577134        6.8750629935       -1.0775164880
 H        -7.3487693449        7.1704101447       -0.1196353365
 H        -7.4411137867        7.8286652268       -1.7646287368
 H        -6.2872327819        6.5784055890       -1.3157389011
 H        -7.6163101098        8.4131826874        3.4995253584
 H        -6.2962547360        7.4700470850        4.3939322326
 H        -7.6655945160        7.9522156597        5.1343830484
 H        -7.8661425977        5.5166725758        5.9600533313
 H        -9.2742085150        4.7250339657        5.0006862733
 H        -9.4335046728        6.2237568074        5.8074644352
 H       -15.0642540681        9.5957987457        0.6926459857
 H       -13.4109282213        9.2125789149        0.5277735364
 H       -13.7913024797       10.5785754960        1.6885302921
 H       -15.8593081515        9.5625947692        3.1807689409
 H       -14.5459881416        9.6642135860        4.4993394972
 H       -15.3696945646        8.2697079078        4.1981843637
 H       -14.7167255985        2.2282139504       -0.8069610766
 H       -13.1513938351        3.0502848442       -0.8933236374
 H       -14.6207424691        4.0665477167       -0.3916403739
 H       -16.3043308349        2.5587780324        1.3970774460
 H       -15.4308737158        1.5814289001        2.4540440324
 H       -15.3743344662        1.0527082290        0.8053316987
 Na      -10.5700677531        4.3203325173        2.2067986545
