117

 C       -13.0074476942        0.2646320662        1.7950079567
 C       -12.8230597849        1.7142180527        1.6928776659
 O       -11.6887384117        2.1366240718        1.9660333054
 C       -14.0701218273        2.6136648302        1.1871925106
 C       -13.9824677380        3.8857950192        2.1701515702
 O       -12.9281311618        4.2663835462        2.5845979412
 C       -15.1452123899        4.8208614147        2.5930340543
 C       -14.8044834973        6.2842849690        3.0968347685
 C       -14.1490325436        7.2993524201        2.0936894943
 O       -13.7426407462        6.8673970422        1.0410662539
 C       -13.9624852150        8.7659261322        2.4738387620
 C       -12.6405509771        8.6386992139        3.2650743077
 O       -12.6934408634        8.2642352072        4.3963950967
 C       -11.3168629700        8.9021505241        2.4994326041
 C       -10.1086284711        8.5443357386        3.3701646755
 C        -9.7926016793        6.9781898699        3.3575367225
 O       -10.6121181463        6.1274726062        3.1359536004
 C        -8.3745775967        6.4875886199        3.8701246949
 C        -7.7726478920        5.1135347455        3.0365144140
 O        -8.3525479924        3.9956167305        3.1467255339
 C        -6.8957875632        5.3700528393        1.7621126827
 C        -7.4267421893        4.5115115269        0.5790103923
 C        -8.6485823345        5.0462522493       -0.1872611745
 O        -9.8161220080        4.9167097953        0.2517095631
 C        -8.4452663477        5.8624975027       -1.4825407962
 C        -8.0791090019        4.8554188606       -2.7047690451
 O        -7.3690535127        5.2636981674       -3.6246187783
 C        -8.8364499592        3.5908867901       -2.9038244357
 C        -7.9392152488        2.4786330735       -3.6170557483
 C        -6.6354714606        2.3667656163       -2.8947104755
 O        -6.4873812942        2.8331904395       -1.7229625468
 C        -5.5490933064        1.5572471079       -3.5636880353
 C        -6.0322843300        0.5695730332       -4.8031184475
 O        -6.2886948919        1.1844614008       -5.8193276910
 C        -6.5501495851       -0.9183660737       -4.5704185804
 C        -7.9063880281       -1.2766174836       -4.0304592946
 C        -8.0620815931       -2.8966321489       -3.7384739064
 O        -7.0229805211       -3.5098351316       -3.7544005024
 C        -9.3672946697       -3.4547405532       -3.3101462992
 C       -10.3678428246       -2.2364837403       -2.4898714328
 O       -11.4128015204       -1.9330967525       -3.0005266469
 C        -9.7378583689       -1.4131510434       -1.3679525253
 C       -10.1249379602       -3.8190177013       -4.6477857285
 C        -9.2264443092       -4.6209932903       -2.3163762851
 C        -4.4917794878        2.6711116815       -4.0106324279
 C        -4.8075758719        0.7354855044       -2.3108197372
 C        -9.8075097370        6.4223250892       -1.8549626847
 C        -7.3162486224        7.0252188571       -1.2418430653
 C        -7.4515520505        7.6184160399        4.3349049816
 C        -8.6739996633        5.7452751700        5.1687067698
 C       -13.9086820966        9.6489598332        1.2714801515
 C       -15.0692642022        9.3979933912        3.5415966086
 C       -13.8499804670        3.0156082154       -0.2989157511
 C       -15.4673851532        1.9232930921        1.2804567547
 H       -13.9041767668        0.0621460900        2.4109029175
 H       -11.9546566341       -0.3231259085        1.9955801830
 H       -13.3761527540       -0.0919618129        0.7988744396
 H       -15.7710311771        4.2211940660        3.3603227459
 H       -15.7843638923        4.8597372750        1.7082300801
 H       -14.2053962543        6.1618749195        4.0271303962
 H       -15.9051774146        6.6062145678        3.3288607194
 H       -11.1842697113       10.0181328371        2.2170580239
 H       -11.1301990409        8.5114015646        1.4811566249
 H       -10.5678042036        8.6970322580        4.4038082838
 H        -9.3380946729        9.3317295846        3.4059163502
 H        -5.7723292996        5.1241372785        1.9764125571
 H        -6.9444458845        6.4013918264        1.5702768615
 H        -7.6796639876        3.6068472490        1.0061289725
 H        -6.6373047883        4.2720406722       -0.1732829736
 H        -9.6722326943        3.9222064875       -3.5905123798
 H        -9.4173343919        3.1910299165       -2.0071114140
 H        -7.7297506259        2.7104368485       -4.6884610738
 H        -8.4813174160        1.5238761257       -3.5331271944
 H        -5.7872947323       -1.3074261563       -3.9376364990
 H        -6.4396915835       -1.5915435957       -5.4977329991
 H        -8.7281169950       -0.9782886431       -4.6243921120
 H        -8.0840405299       -0.8433294079       -3.0298739563
 H        -8.9241862525       -1.8703610657       -0.8298481613
 H       -10.5572077289       -1.3358423749       -0.6178885832
 H        -9.5441219365       -0.4712881504       -1.6793841582
 H       -10.7359667015       -2.9338623610       -4.9157760995
 H       -10.8522324526       -4.5048584139       -4.5092394125
 H        -9.4274610760       -4.2881138557       -5.3930203144
 H        -8.4556885112       -5.2281602475       -2.7539226488
 H       -10.1636574910       -5.1150887549       -2.3505663720
 H        -8.8094419747       -4.3262246115       -1.3405705518
 H        -4.4855722141        3.4939660848       -3.3481404761
 H        -4.7286249945        3.0774723055       -4.9547442571
 H        -3.5156881946        2.2638291318       -4.1650547323
 H        -3.9559953816        1.1446905909       -1.9805045884
 H        -4.6794891497       -0.1468828440       -2.9163754695
 H        -5.5598101177        0.6872531927       -1.5253399091
 H       -10.3722581596        5.6580362390       -2.3811385247
 H        -9.9448672117        7.4607414261       -2.2220670395
 H       -10.4775599061        6.3409223342       -0.9385600129
 H        -7.4308087427        7.3673404862       -0.1827572992
 H        -7.4307100866        7.8939951856       -1.9714368642
 H        -6.3439545971        6.7164119010       -1.2922118349
 H        -7.3356618604        8.4027784712        3.5155677801
 H        -6.4825617546        7.3850079591        4.7461153849
 H        -7.8630676273        8.1923934729        5.1530337255
 H        -7.7331808084        5.7300748183        5.5683296098
 H        -9.2609072103        4.8109615232        5.0073072577
 H        -9.2917198153        6.4170549951        5.7969984162
 H       -14.6756530912        9.3439563631        0.6229768533
 H       -13.0236499358        9.6612855639        0.5883244111
 H       -14.0159509571       10.6749351551        1.7303873500
 H       -15.5754534749       10.0483872097        2.8785280805
 H       -14.5374402784        9.8265617358        4.4487827330
 H       -15.6769045523        8.6389940610        3.9890496085
 H       -14.3243485554        2.3208390620       -1.0343142930
 H       -12.7759067133        2.9486655863       -0.4018947592
 H       -14.0632445290        4.0348142624       -0.4352887932
 H       -16.1742155961        2.6675841938        0.9858481788
 H       -15.7967866062        1.7522042449        2.3214026119
 H       -15.5859882413        1.0609720838        0.6702459757
 Na      -10.5097899412        4.2334789162        2.1859729223
