117

 C        -3.0575889153        8.2372181462        6.7877939986
 C        -4.2415826319        8.1101800718        5.7846156436
 O        -4.1178330324        8.6024786205        4.7024945474
 C        -5.5874229892        7.5395486089        6.3521330261
 C        -5.8817866649        6.1362251835        5.7439230939
 O        -6.0821450925        5.1539187473        6.3395048028
 C        -6.1002290773        6.0683652190        4.1139145795
 C        -5.9159493857        4.7071145010        3.4470947327
 C        -6.7123729222        4.7467132700        2.1213430804
 O        -7.9341405445        4.9234919446        2.1555027821
 C        -5.9590545340        4.6597606144        0.7685629981
 C        -6.0794236921        3.2585914408        0.1582209414
 O        -5.1933402161        2.7211612933       -0.4854503951
 C        -7.4305416672        2.5658708423        0.2726309304
 C        -7.4194408282        1.2470378925       -0.4406877650
 C        -8.5249798392        0.2861203759       -0.0357359407
 O        -9.5457498285        0.1585384881       -0.6598413677
 C        -8.3569376933       -0.3924334590        1.4357944136
 C        -9.3122217197        0.4249416432        2.4233947804
 O        -8.9198193907        0.9620726483        3.4528030844
 C       -10.8497744276        0.2330500586        2.0794894667
 C       -11.6592596555        1.5341287334        2.3687456117
 C       -11.4503166375        2.5627363521        1.2951916253
 O       -10.3937530001        2.4470293581        0.7073326972
 C       -12.5043827734        3.6749709929        1.0971869277
 C       -13.2661794641        3.3271288580       -0.2408196404
 O       -12.7457546360        2.7799174680       -1.2122150230
 C       -14.6303486339        3.9282050438       -0.4202750910
 C       -15.3303199466        3.7808672652       -1.8471631333
 C       -15.2610046428        5.0743866044       -2.6217504281
 O       -14.9108636185        6.0664492757       -2.1262930169
 C       -15.5866231740        5.0439947385       -4.2200112683
 C       -14.4085948432        4.4285330847       -4.8719182335
 O       -14.4342072677        3.2980877242       -5.3473287253
 C       -13.0836536214        5.0765334818       -4.6882161970
 C       -12.0126638108        4.1712328458       -5.3700671931
 C       -11.1102814369        3.4037951118       -4.5662195100
 O       -11.0233417518        3.5686239442       -3.3610044599
 C       -10.1590305755        2.3655900405       -5.2815340360
 C       -10.9201068235        1.0406493060       -4.9478373747
 O       -11.1402989465        0.7592135650       -3.7847520412
 C       -11.3243978982        0.2254488991       -6.1911734385
 C        -9.9137167222        2.7359775636       -6.7836538613
 C        -8.7096730542        2.1997209069       -4.7513701817
 C       -16.9055111665        4.2066301218       -4.4639097185
 C       -15.7045984424        6.5482439147       -4.6827749029
 C       -13.4404917457        3.8076822490        2.2486033133
 C       -11.6886960824        5.0094429969        0.9210216704
 C        -8.9086620473       -1.8548986995        1.4811929277
 C        -6.9570866891       -0.2780941196        1.9588954619
 C        -6.8945905152        5.4647735028       -0.1870262292
 C        -4.4576398209        5.1690951880        0.8176336966
 C        -5.4662748826        7.3980340476        7.9436379563
 C        -6.7897139135        8.5729852473        5.9646899227
 H        -3.0215237973        9.2382937183        7.3031155551
 H        -2.2573268864        8.3289510700        6.0391957618
 H        -3.0156572274        7.5135791429        7.5167775175
 H        -5.4025824625        6.7212848132        3.5300096832
 H        -7.1925187935        6.3707744204        3.8867749112
 H        -6.1224917910        3.9388810450        4.1103655904
 H        -4.8614146907        4.5646727812        3.2108767486
 H        -8.1945825568        3.2378227550       -0.1005797105
 H        -7.6717550856        2.3818211058        1.3871558609
 H        -6.4591223679        0.8345109716       -0.3206436200
 H        -7.5499145785        1.4762763005       -1.5223390683
 H       -11.2057387628       -0.4635157028        2.8245837522
 H       -10.8876026673       -0.1186392023        1.0630580710
 H       -11.4080497664        1.8473986427        3.4290014390
 H       -12.7330536543        1.4491788908        2.3302680668
 H       -14.5694793855        4.9922955995       -0.0463571039
 H       -15.3158418169        3.5424102661        0.3239040905
 H       -16.3311000488        3.4428738994       -1.7461995656
 H       -14.7710838972        2.9888868978       -2.2995311362
 H       -13.0179275755        5.2945891219       -3.6057833840
 H       -13.0691905667        6.0636696110       -5.1566866204
 H       -11.4807252443        4.8157224893       -6.0665916993
 H       -12.6162291272        3.3634758876       -5.9286181767
 H       -10.4847353496        0.1338095715       -6.8635562109
 H       -11.9425398706        0.9871666998       -6.6033401470
 H       -11.8828377312       -0.7137655529       -6.2467854348
 H        -9.2344119157        3.5678077529       -6.9011067259
 H       -10.8456207211        3.0710185703       -7.2590620335
 H        -9.3917634716        1.9118048901       -7.2106150471
 H        -8.6003027085        1.9245905369       -3.7557061998
 H        -8.2674647446        3.1700836219       -4.8552347596
 H        -8.1521421553        1.5267933155       -5.4798661713
 H       -16.6591364502        3.2261106620       -4.0998163633
 H       -17.0711690747        4.1097056164       -5.5031429386
 H       -17.8866727539        4.6124906059       -4.0520113314
 H       -15.5957444658        6.5990741084       -5.7758598971
 H       -15.0284580592        7.1944069125       -4.2012805483
 H       -16.8055875831        6.9239361728       -4.5432220839
 H       -13.0378223630        3.6249172358        3.2943895406
 H       -14.3332584607        3.1194414149        2.1544869119
 H       -13.7541413937        4.8959810610        2.2421070305
 H       -10.9559247273        5.1320716549        1.6985535223
 H       -12.3579652982        5.8839640281        1.0327528463
 H       -11.2144266340        5.0078038001       -0.0016807473
 H        -9.1684202844       -2.1137547535        2.4543592430
 H        -8.1929971221       -2.6604905208        1.1669925410
 H        -9.6713054548       -1.9988914992        0.7327833809
 H        -6.9061130642        0.3459268543        2.8417329959
 H        -6.3063869129        0.1320605286        1.1658586913
 H        -6.6095597797       -1.2383927373        2.2613243404
 H        -6.6878062703        6.4633858234        0.0654955457
 H        -8.0087755085        5.3126265444       -0.0180817681
 H        -6.6349719473        5.1814870705       -1.2077685381
 H        -4.2957149237        5.9675052963        1.5560045247
 H        -3.9623287819        5.4343999975       -0.1756039526
 H        -3.8923273563        4.3888678702        1.3216675224
 H        -4.5243595756        7.0205753879        8.3402383405
 H        -6.2730834894        6.7375621476        8.3020700112
 H        -5.5820507484        8.4418877523        8.2537723045
 H        -6.2913730726        9.4442429897        5.5219123878
 H        -7.4136687931        8.8074236940        6.8142883482
 H        -7.4151949638        8.1503264797        5.1240268591
 Na      -10.4784608123        2.0740264850       -1.6544367490
