117

 C       -13.8670409263        0.6457569316        2.4170164829
 C       -12.9322772584        1.7320554574        1.8300056701
 O       -11.7399046580        1.5497534436        1.8836993434
 C       -13.7689146693        2.8494266045        1.1618886050
 C       -13.5680527227        4.2004587305        2.0113453676
 O       -12.5680153843        4.4478102390        2.5437436436
 C       -14.7560982930        5.1741804782        2.0067592081
 C       -14.7647659168        6.5778524319        2.6043211481
 C       -14.2642297319        7.5970879848        1.5708785470
 O       -14.1677887161        7.1121903785        0.4441491613
 C       -13.7100173265        8.9907644630        2.1359939482
 C       -12.3193401198        8.7670335492        3.0229684382
 O       -12.4717757233        8.5663158009        4.2189518927
 C       -10.8818305509        9.0394444202        2.4322057666
 C        -9.7064786239        8.5469183870        3.2862267511
 C        -9.6272605876        7.0329038596        3.2575984020
 O       -10.4216644233        6.2810512379        2.8416015157
 C        -8.3674431893        6.5017939959        4.0761879333
 C        -8.0077105275        5.3147178519        3.0609411156
 O        -8.5355816906        4.1867933616        3.2922864781
 C        -7.4886783671        5.7430781279        1.7206555117
 C        -7.4076502378        4.6490564082        0.5475792713
 C        -8.7932615405        4.7897416318       -0.2599985346
 O        -9.8314992306        4.1698766882        0.0932018929
 C        -8.8180218963        5.8041976899       -1.4865782122
 C        -8.4282649450        4.9839074102       -2.7994881255
 O        -7.8027378146        5.5500735561       -3.5974866911
 C        -8.8812675580        3.4546731572       -2.9237336377
 C        -7.8402758817        2.3914509861       -3.6021202207
 C        -6.4541421193        2.2361555826       -2.8817525819
 O        -6.0243939088        2.9354711782       -1.9052076938
 C        -5.5273317735        0.9741294021       -3.3438564491
 C        -6.1527571495        0.1871203357       -4.6501534332
 O        -6.7042718091        0.8016280386       -5.5751912040
 C        -6.5244146195       -1.2297622729       -4.5590059430
 C        -7.8258471951       -1.4377014904       -3.8793562609
 C        -8.0353819083       -2.8786607112       -3.3516006071
 O        -7.1931816579       -3.7360512600       -3.2270885083
 C        -9.5316538476       -3.2684592286       -3.0483339000
 C       -10.3604612909       -2.1480710349       -2.3458937446
 O       -11.4039130539       -1.6039262279       -2.6992459570
 C        -9.7019959016       -1.5895378619       -1.0298476477
 C        -9.9729640163       -3.7846186808       -4.5769250243
 C        -9.4060354453       -4.4382389098       -2.0292797732
 C        -4.1433725833        1.4280716740       -3.7771927663
 C        -5.4097794115        0.0897035545       -2.1085401914
 C       -10.3908410771        6.3055619624       -1.5436445097
 C        -7.9082196111        7.1293289569       -1.2335184956
 C        -7.0509311009        7.5672312860        4.1232986392
 C        -8.7493992017        6.1524899477        5.5398083256
 C       -13.5948478810        9.8995099712        0.8388251433
 C       -14.8490048599        9.5659500033        3.1345438303
 C       -13.1241793534        3.2463131023       -0.2687644535
 C       -15.2272351025        2.5641732708        0.9986744020
 H       -14.0596773965        0.7791292743        3.5537848413
 H       -13.2880721417       -0.3482016869        2.4174329589
 H       -14.7459908294        0.6233883898        1.7930090670
 H       -15.4543452182        4.5054015833        2.6687342492
 H       -15.3054690104        5.1427339016        1.0500133673
 H       -14.1884829446        6.6778760176        3.5975305065
 H       -15.8881440968        6.5821212128        2.6867082429
 H       -10.7213112108       10.1955554451        2.4207420107
 H       -10.6307899020        8.9032166691        1.3534235783
 H       -10.0333181301        8.9066898116        4.2786472366
 H        -8.8151901311        9.1373715349        3.1249997758
 H        -6.3644104756        6.0371316939        1.9504654432
 H        -8.0758271449        6.5636755409        1.4398178069
 H        -7.3210252494        3.7090295444        0.9519969868
 H        -6.5407643500        4.8623412695       -0.0968203269
 H        -9.7815924516        3.5249232106       -3.5443132468
 H        -9.3015811389        3.0742435431       -1.9896452088
 H        -7.5720474248        2.8128018375       -4.5679287690
 H        -8.3392537094        1.3790478020       -3.6488381165
 H        -5.7139042328       -1.8973045430       -4.3372631968
 H        -6.7290465266       -1.4631593950       -5.6941944230
 H        -8.5115560119       -1.2916126891       -4.6937311634
 H        -7.9154644467       -0.6611227713       -3.1429868938
 H        -8.6164333615       -1.4258820452       -0.9136892648
 H       -10.0812842337       -2.2448910144       -0.1693979088
 H       -10.3159515878       -0.7496168366       -0.8512763038
 H        -9.6492594257       -3.1282873158       -5.3291123549
 H       -11.0607919183       -3.7156285689       -4.6060653086
 H        -9.6917606796       -4.7811133100       -4.7801323022
 H        -8.9204975296       -5.2663735999       -2.4142933028
 H       -10.3913645901       -4.5884329425       -1.5610088556
 H        -8.7878761109       -3.9607305566       -1.1872106659
 H        -3.5076000194        1.7017891298       -2.9810734201
 H        -4.1355373211        2.3080131538       -4.4617675683
 H        -3.5431273788        0.6082087772       -4.2561439943
 H        -5.5717369624        0.6899986547       -1.3161752351
 H        -4.4441677566       -0.1854674601       -2.2262234341
 H        -6.1499913232       -0.7013431316       -2.0520854411
 H       -10.9647651320        5.9105169268       -0.6923707043
 H       -10.8760938377        5.9295142759       -2.4923464541
 H       -10.3741962217        7.4383297994       -1.6497406180
 H        -8.4267552083        7.8805135963       -0.6287778117
 H        -7.7832969050        7.5272193039       -2.2447925299
 H        -6.9080124498        6.9671696469       -0.8815149607
 H        -6.8930555892        8.2153446724        3.3710011084
 H        -6.0604619294        7.1251762606        4.3376135825
 H        -7.0616517567        8.2511050415        5.0641555458
 H        -7.9686956992        5.6123283528        5.8996412350
 H        -9.7282328769        5.6692151775        5.5313855372
 H        -8.9124544110        7.0545217144        6.1369811347
 H       -14.5372226823       10.4474775501        0.7199255084
 H       -13.1029752588        9.3753625436        0.0121765897
 H       -12.8025848370       10.7311548843        1.0487063688
 H       -15.6993465979        9.5094547890        2.5601575783
 H       -14.6630928543       10.5410324947        3.5713745396
 H       -14.8280757751        8.7874218310        3.9098913327
 H       -12.6949240798        2.2454475527       -0.6501019738
 H       -12.3762853127        4.0741189294       -0.1686233530
 H       -13.8110480563        3.5508004106       -1.0542474508
 H       -15.6680159480        3.2708733753        0.3231584455
 H       -15.8635307685        2.5272925502        1.9486447962
 H       -15.3252228934        1.6832605358        0.3899050060
 Na      -10.5196090091        3.5564276747        2.3795802207
