117

 C       -14.0123139083        1.0666859065        2.8607801092
 C       -13.1367129382        1.9527736073        2.0069884267
 O       -11.9178841126        1.8599340413        2.1565733840
 C       -13.6225500957        2.9652220643        0.9947495290
 C       -13.6125724442        4.1913201522        1.9296100382
 O       -12.6426843194        4.4335909912        2.6612897572
 C       -14.7705237429        5.1831078738        2.1471548484
 C       -14.3410213583        6.6597662073        2.4587276330
 C       -13.9870174227        7.7115206586        1.3674103025
 O       -14.1362281271        7.4905104326        0.2160994191
 C       -13.5343895695        9.1554962938        1.9202925906
 C       -12.2029317089        8.8892148034        2.7018676839
 O       -12.4481503133        8.5302515408        3.8259933839
 C       -10.8037920751        9.1577814058        2.2032941060
 C        -9.9112058998        8.7690760162        3.4070536581
 C        -9.5558158689        7.2973161128        3.3647542101
 O       -10.3245636768        6.5655371847        2.6096795454
 C        -8.3357966732        6.5599400244        3.9780833531
 C        -8.1367191116        5.2717920028        3.0190306958
 O        -8.4124204281        4.1292719032        3.2864149779
 C        -7.2772559022        5.5943729607        1.8500330521
 C        -7.6149748059        4.6632359989        0.7025517079
 C        -8.9434886076        4.6861327959       -0.1162159406
 O        -9.9099375332        4.0332367367        0.1922653308
 C        -9.0360426706        5.7567495790       -1.4362777968
 C        -8.3932148535        4.9769308607       -2.7068706668
 O        -7.9738680085        5.7383469702       -3.5867733714
 C        -8.7853841558        3.4444023492       -2.9189067129
 C        -7.8875127413        2.3629050176       -3.4887834862
 C        -6.4095611690        2.1211602189       -2.8100154437
 O        -5.8496056706        2.9014885903       -2.1810825653
 C        -5.6554962797        0.7985770506       -3.2900587225
 C        -6.1987310480        0.1796636101       -4.5650908913
 O        -6.4384752087        0.7193672855       -5.5926907893
 C        -6.4725940920       -1.3395491775       -4.5342480701
 C        -8.0186376233       -1.6267111844       -4.0315484686
 C        -8.0421711041       -3.0191212006       -3.2631265624
 O        -7.0898217129       -3.5369921353       -2.7168612016
 C        -9.6392629634       -3.4810428369       -2.8616355967
 C       -10.1892352400       -2.1564235205       -2.1727522303
 O       -10.9765872714       -1.5117150221       -2.8162464222
 C        -9.8418165860       -1.7316837956       -0.8149749131
 C       -10.5476656711       -3.6748643433       -4.1073322333
 C        -9.7756844754       -4.7515146403       -1.8701919726
 C        -4.2667718087        1.2188305002       -3.6249910970
 C        -5.6685377135       -0.2417324220       -1.9861691733
 C       -10.5477543440        5.8568696618       -1.6518240266
 C        -8.2283888385        7.0712412015       -1.2335342393
 C        -7.1145451275        7.4618259532        4.1336931538
 C        -8.6717566180        5.8400372438        5.4741208923
 C       -13.6464274574       10.0931730641        0.6551465076
 C       -14.6244295753        9.6449290391        2.9962282555
 C       -12.7457299268        3.0198177445       -0.2797081051
 C       -15.0955586153        2.8073411167        0.3544384339
 H       -14.6822687856        1.6811252301        3.3380539650
 H       -13.4660258520        0.6902992804        3.7707385255
 H       -14.4938858773        0.3456950762        2.1851302997
 H       -15.3484717411        4.7737554996        2.9072454164
 H       -15.4147159873        5.1159414691        1.2706985612
 H       -13.5220142876        6.7204618153        3.0889073902
 H       -15.2400186218        6.9258955909        2.9848935367
 H       -10.7683804464       10.0919219631        1.7518289520
 H       -10.3536746877        8.5557561297        1.4079126426
 H       -10.6272519322        8.8832083607        4.2480173804
 H        -9.0931935768        9.4951166668        3.6052236816
 H        -6.2898545464        5.4998145432        2.0239097706
 H        -7.6066586541        6.6376872986        1.5593585647
 H        -7.5781041242        3.6128607351        1.1715066925
 H        -6.8019900258        4.7415165629       -0.0265137666
 H        -9.7270850096        3.6212743118       -3.5091745164
 H        -9.2057174149        3.0818672571       -1.9462686187
 H        -7.6998842609        2.6139292871       -4.5651555837
 H        -8.3889385620        1.3991391521       -3.3820624498
 H        -5.8509945286       -1.9870643842       -3.8818182471
 H        -6.2758356870       -1.6414621848       -5.5140111878
 H        -8.6221192668       -1.8874386085       -4.9080064607
 H        -8.3424224244       -0.7276867550       -3.4928572367
 H        -8.7710009148       -1.6514490794       -0.9325978902
 H       -10.0716530164       -2.4111983028       -0.0381219008
 H       -10.2396740402       -0.7737273672       -0.5003156786
 H       -10.6155982372       -2.6523795769       -4.7024186978
 H       -11.5338597122       -3.9974858069       -3.8526554415
 H       -10.0476102431       -4.2739063514       -4.9737304560
 H        -9.3308901149       -5.6326707965       -2.4410157417
 H       -10.8049486730       -4.8669149594       -1.6086032451
 H        -9.3074425608       -4.6207787581       -0.9493506879
 H        -3.9781489722        2.0340795015       -2.9350234684
 H        -4.1907104288        1.5965709803       -4.5852354200
 H        -3.5294453583        0.5274340480       -3.4198330870
 H        -4.9528458409        0.2997467114       -1.3068678844
 H        -5.3626626439       -1.2972355112       -2.4073984845
 H        -6.6660096961       -0.1206487264       -1.5981036878
 H       -11.0162373039        6.4217086848       -0.8206518718
 H       -10.9714755691        4.8130381225       -1.5312991318
 H       -10.7862637270        6.3066490807       -2.6154265699
 H        -8.3297568151        7.5698544292       -0.2507335807
 H        -8.5005850530        7.8627306231       -2.0067177546
 H        -7.2072278069        6.8003809400       -1.4269324631
 H        -6.7235571107        7.9208397972        3.1320941426
 H        -6.2578031899        6.9772757439        4.5001040160
 H        -7.2374127052        8.2622487605        4.7465405155
 H        -7.7109696985        5.9505696584        6.0982522350
 H        -8.9739060971        4.7643167379        5.3277095630
 H        -9.4804300558        6.3766692494        5.9592278481
 H       -14.6484690537        9.9926995533        0.3157955757
 H       -12.8988524380        9.7056413269       -0.0049034230
 H       -13.5524341591       11.1229916545        0.7658165530
 H       -15.5630681656        8.9677839678        3.0300258875
 H       -14.9680916704       10.6554953447        2.5875037205
 H       -14.0860995218        9.6622823051        3.9318639461
 H       -13.0328091620        2.2448266108       -0.9143705118
 H       -11.7149735429        3.0290928160       -0.0621736595
 H       -12.9458144314        3.9470580539       -0.8024545318
 H       -15.3257945605        3.6523609205       -0.3153742487
 H       -15.8335888933        2.7326685807        1.0868462963
 H       -15.2057856796        1.9212696229       -0.2957563456
 Na      -10.2432735951        3.4933514924        2.1393769587
