117

 C       -14.3751284976        1.3724039040        3.0424735407
 C       -13.3157840185        1.9760513111        2.1275326883
 O       -12.1501226766        1.7737278978        2.3834465861
 C       -13.5886318570        3.0218972542        1.0020278528
 C       -13.4833024444        4.3480133391        1.7924391822
 O       -12.4449828406        4.6968235024        2.3027015725
 C       -14.6052039254        5.4335163266        1.7808753989
 C       -14.0164278738        6.7276920946        2.4404068909
 C       -13.9180527193        7.7695129184        1.3872498981
 O       -14.0535631217        7.4440006536        0.2121406197
 C       -13.5266737713        9.3138072009        1.8221528329
 C       -12.3313941338        8.9932562408        2.7430145912
 O       -12.4247713921        8.3378382630        3.8082485245
 C       -10.8553612042        9.4192527605        2.2591890402
 C        -9.6547512161        8.7200164234        3.0016111605
 C        -9.6425961427        7.1655992233        3.1129356219
 O       -10.2623115169        6.4069038131        2.4706675868
 C        -8.3347105073        6.5556276562        3.9785747579
 C        -7.9234481879        5.2622748374        3.0846933221
 O        -8.4006309293        4.1213757216        3.3138420269
 C        -7.0550253598        5.5398926353        1.6951938117
 C        -7.3555659861        4.5335214864        0.4313754066
 C        -8.8872032228        4.6858837323       -0.2483150621
 O        -9.7329938386        3.9462385838        0.2674431872
 C        -9.0918934196        5.6097713314       -1.5160626040
 C        -8.3927032638        4.7892303622       -2.6427089519
 O        -7.8755144259        5.3030935460       -3.6163036590
 C        -8.7546208376        3.2282555516       -2.7298270557
 C        -7.8315657110        2.5495503227       -3.7396834595
 C        -6.4953393265        2.2558043314       -3.0145404641
 O        -6.0468016333        3.0074234122       -2.1104100639
 C        -5.7687830177        0.7396437887       -3.1370794351
 C        -6.2303760732        0.0152083154       -4.4577111312
 O        -6.2980322958        0.7074377125       -5.4713056571
 C        -6.7102576817       -1.4993939327       -4.6294717714
 C        -8.1106158945       -2.0297449376       -4.3277311929
 C        -8.3297249353       -3.0552425994       -3.0258981412
 O        -7.4878123735       -3.5146804704       -2.2763603649
 C        -9.8145330463       -3.4318643319       -2.7188230727
 C       -10.2354769427       -2.1048208110       -2.0486396136
 O       -10.6190368036       -1.0984265966       -2.6807562990
 C        -9.8498115878       -2.1079064481       -0.5066359310
 C       -10.5460361431       -3.8118897487       -3.9467266264
 C        -9.6738636563       -4.7393652625       -1.8302766428
 C        -4.2261105364        0.9188331510       -3.3766964621
 C        -5.9364180500       -0.0210620146       -1.7904889238
 C       -10.6359198032        5.7882455333       -2.0031689671
 C        -8.5485452488        7.0372791871       -1.1969099627
 C        -7.1948272976        7.4713894668        4.2057185127
 C        -8.9110713683        6.0753569939        5.3349539986
 C       -13.1082881493       10.1899753010        0.6873982348
 C       -14.8109187507        9.9225580004        2.4981080253
 C       -12.4612502434        3.0664227662       -0.0991930725
 C       -14.9684570750        2.7911587368        0.3737791698
 H       -15.5041331492        1.6381753313        3.1012222545
 H       -14.1702045909        1.7032495403        4.0078052715
 H       -14.0464379737        0.3458865530        2.8946374362
 H       -15.5592994026        5.0030460770        2.1980144257
 H       -14.8277997628        5.4474742477        0.7329326596
 H       -12.9570680887        6.4655198387        2.8391336485
 H       -14.6176456860        7.0889062310        3.2821930118
 H       -10.6851812964       10.5632599010        2.3052595473
 H       -10.6183954800        9.1465125264        1.2191954288
 H        -9.4190443253        9.3634316481        3.8326222598
 H        -8.8360409830        8.8627680872        2.3127370348
 H        -5.9489769048        5.2423004751        2.0232412874
 H        -7.0792213729        6.5453712889        1.3318239944
 H        -7.2868453861        3.5189984991        0.7604987405
 H        -6.5626144264        4.6741958327       -0.3435209872
 H        -9.7905025654        3.2535843503       -2.9978161890
 H        -8.6844328990        2.7452767336       -1.7833055040
 H        -7.6695058638        3.2144351044       -4.5620203098
 H        -8.1617317114        1.5469089046       -4.0838389917
 H        -6.0351939656       -2.2848921659       -4.2717381199
 H        -6.7169704436       -1.6669771774       -5.7591683572
 H        -8.4580627903       -2.2902966623       -5.3461011180
 H        -8.6920063916       -1.1666423595       -3.9335201400
 H        -8.7779214344       -2.1610583932       -0.2175515954
 H       -10.4448040049       -2.9765737724       -0.1965994491
 H       -10.2993503162       -1.2312474405        0.0754881802
 H       -10.8706799407       -3.1106903219       -4.5657790899
 H       -11.3638367703       -4.5081058377       -3.6122991282
 H        -9.8956569634       -4.2858094464       -4.5523532329
 H        -9.3139129071       -5.4420468390       -2.5139172677
 H       -10.6724932501       -5.0805127857       -1.4656811929
 H        -9.0679897550       -4.6049888849       -0.8902922243
 H        -3.6574809201        1.5503210642       -2.7119153697
 H        -4.1595401026        1.3747422111       -4.4188312600
 H        -3.5847625541       -0.0330034461       -3.3590117911
 H        -5.2494561875        0.4683051771       -1.1270383307
 H        -5.7944232212       -0.9935491789       -1.9954079986
 H        -6.9771070256        0.1624024308       -1.5569288657
 H       -10.8297075414        6.7719512546       -1.5615088692
 H       -11.3157980063        5.1243222639       -1.5480917986
 H       -10.6738080604        5.9362323259       -3.0852963836
 H        -9.3300291279        7.4041901727       -0.5497686201
 H        -8.5922067987        7.6963890440       -1.9652490960
 H        -7.5458390720        7.1643092550       -0.6716466056
 H        -6.7590659060        7.8258537800        3.3079464746
 H        -6.2809211150        6.9967720849        4.6661016584
 H        -7.4345371922        8.3891986476        4.8423339189
 H        -8.0953374732        6.1511062955        6.0669076300
 H        -9.1641226084        5.0261460853        5.2509862118
 H        -9.6908074940        6.7652502227        5.7089370878
 H       -13.8624053385        9.9243583333       -0.1538781504
 H       -12.0988039642       10.0904828158        0.2872915116
 H       -13.4367491108       11.2240374470        0.8371412840
 H       -15.5773144480        9.2828759567        2.1313998250
 H       -14.9937026830       10.7954616298        2.0263135538
 H       -14.8774182803        9.8559610832        3.6122046552
 H       -12.7014775025        2.9204866072       -1.1766239816
 H       -11.7064217564        2.3096295387        0.2130907579
 H       -11.9024994793        4.0112880568       -0.0055520141
 H       -15.2109059603        3.6437965242       -0.2489453400
 H       -15.7412364737        2.7141467116        1.2060706003
 H       -15.1427588822        1.9230363363       -0.2297152927
 Na      -10.4648980102        3.6072177943        2.3683665321
