117

 C       -14.5913897122        1.5376114173        3.3682043602
 C       -13.5627784879        2.3306104162        2.6657293902
 O       -12.5724232906        2.7028477770        3.2112814439
 C       -13.8679770144        3.0383612369        1.1211008506
 C       -13.7253142221        4.5687309245        1.5353017554
 O       -12.6044901510        4.8526463481        1.9574568961
 C       -14.6972807462        5.7206173975        1.1267932330
 C       -14.4893212273        7.0424539651        1.8074224618
 C       -13.6846990668        8.0015128749        0.9468794546
 O       -13.3577102475        7.7882694271       -0.1754573993
 C       -13.3362212510        9.4607642177        1.5204635513
 C       -11.9183588326        9.3592934095        2.4180343222
 O       -12.0439618304        8.8653441874        3.5028343551
 C       -10.5063065663        9.4847695570        1.9387936514
 C        -9.5049226185        8.9287406356        2.9763137323
 C        -9.4267742589        7.3731805324        2.7240111389
 O        -9.9543385661        6.9238753920        1.6834332594
 C        -8.3478844485        6.3924957295        3.6002203456
 C        -7.9208713815        5.1722008890        2.6571037886
 O        -8.2230781662        4.0374510803        2.9421544623
 C        -6.9443030249        5.4524775587        1.4107042715
 C        -7.0775123702        4.3222711651        0.2408108153
 C        -8.6134396204        4.6076512431       -0.1661728761
 O        -9.4947294374        4.3178859000        0.4906943383
 C        -8.9932441121        5.3438242606       -1.4978602050
 C        -8.3050992344        4.5572673682       -2.6860616016
 O        -7.3301643759        4.9580950257       -3.2279966938
 C        -8.8750681935        3.2406402138       -3.1786446237
 C        -7.9545842505        2.1382154381       -3.7642677156
 C        -6.6095147592        1.9408999676       -3.0033532604
 O        -6.0135292506        2.6966461639       -2.3642386969
 C        -6.1020241569        0.3686058790       -2.9417612852
 C        -6.4622093950       -0.3882865401       -4.3216930815
 O        -6.5898181768        0.2396755813       -5.3180337521
 C        -6.3832660516       -1.8784280091       -4.4562385416
 C        -7.7856136813       -2.5488963089       -4.1171867002
 C        -8.1835224693       -2.9838392443       -2.7123392431
 O        -7.4211290393       -3.2212964086       -1.8104081723
 C        -9.6680136265       -3.1547601041       -2.4194022876
 C       -10.1508769882       -2.0516664042       -1.3770565077
 O       -10.2901782964       -0.8851230039       -1.6375651912
 C       -10.7754197522       -2.4889877530       -0.0298905141
 C       -10.6621075084       -3.0792209035       -3.5985335099
 C        -9.8152778883       -4.6152049053       -1.8833888109
 C        -4.6415828495        0.2328937900       -2.4721875477
 C        -6.8652791016       -0.1909166518       -1.7345529477
 C       -10.5671612707        5.4151513852       -1.6999110327
 C        -8.4571930724        6.7647577666       -1.3476122599
 C        -7.1869661504        7.1953991731        4.1526243561
 C        -9.1090652540        5.6864964926        4.7964348279
 C       -13.2157741387       10.3647284711        0.2273004318
 C       -14.3619274296       10.2004385812        2.4099599209
 C       -12.6482188965        2.6429801827        0.2324050214
 C       -15.1401723409        2.6265649013        0.4403367977
 H       -14.3502521504        0.6461788914        3.8127827818
 H       -15.4948054614        1.1432358624        2.7287549400
 H       -14.8834673430        2.2153311740        4.2459368246
 H       -15.7066352257        5.3331713674        1.2187164750
 H       -14.5931387233        5.8545294423       -0.0221669808
 H       -14.0979462198        7.1238146520        2.8601943457
 H       -15.5042040191        7.5104594486        1.8829794886
 H       -10.2283342946       10.5538072905        1.7823545522
 H       -10.2822810485        8.7932439820        1.0620058058
 H       -10.0688966897        9.0674377037        3.8755564286
 H        -8.5824850175        9.5102744539        2.9690717886
 H        -5.9712413951        5.3957476456        1.8089418557
 H        -7.0097045996        6.4910755891        0.8601395740
 H        -6.7418218626        3.3105464081        0.5072012316
 H        -6.5055103146        4.6407092632       -0.5692181336
 H        -9.6316614072        3.4143361536       -3.9606120891
 H        -9.3549099125        2.8847757673       -2.3347274457
 H        -7.6672604792        2.2701006300       -4.7767081961
 H        -8.5619068391        1.1929531611       -3.8317575436
 H        -5.6302651379       -2.2514360061       -3.6503956434
 H        -5.9933608903       -2.0913512364       -5.4020528115
 H        -7.9090655717       -3.5953597070       -4.6061536764
 H        -8.4598605266       -2.0066308491       -4.7187862890
 H       -10.1443760746       -3.3535930296        0.3720956598
 H       -11.7218504414       -3.0350408560       -0.2908673564
 H       -10.8040152522       -1.6746822047        0.6568161891
 H       -10.8583883922       -2.0435588325       -3.9508080753
 H       -11.5228942203       -3.4960804577       -3.3710341594
 H       -10.3145382625       -3.6632665748       -4.4301017136
 H        -9.3766172265       -5.3737686405       -2.6502521356
 H       -10.8532404273       -4.9313886675       -1.7524976038
 H        -9.2366410766       -4.7057761345       -1.0127031720
 H        -4.5575000376        1.0871164218       -1.6953332074
 H        -3.8321599851        0.4711462796       -3.1688393023
 H        -4.3761586319       -0.7251374497       -1.9951423141
 H        -6.5269657011        0.2554410493       -0.9076894787
 H        -6.6129013290       -1.2306593128       -1.7627362931
 H        -7.8841513644       -0.1236413220       -2.0266575974
 H       -10.9957795384        6.1936636147       -1.0850237840
 H       -11.0433849488        4.4289034777       -1.7035662419
 H       -10.5695558360        5.7561651266       -2.7137558130
 H        -8.5024633328        7.1472525542       -0.3578609712
 H        -8.9510640142        7.5235207923       -2.0295368304
 H        -7.4355915349        6.7797919762       -1.5718551062
 H        -6.6261750023        7.6819197276        3.2769202779
 H        -6.4215056797        6.5182779644        4.6159309995
 H        -7.4329923429        7.9957902284        4.8579154787
 H        -8.5034594456        4.9124153101        5.3138140891
 H        -9.8635642228        5.0538849723        4.3558372541
 H        -9.3996420922        6.4220656917        5.5233265876
 H       -13.7982601429       10.2189278195       -0.6498155716
 H       -12.1796877817       10.1669990132       -0.1878346839
 H       -13.2008937760       11.4490450965        0.4795814877
 H       -15.3473937259       10.2204527740        2.0288600171
 H       -13.9123970937       11.1678201546        2.6539282041
 H       -14.4776651804        9.6325671539        3.2431820228
 H       -12.3270601960        3.3215977405       -0.5425514679
 H       -13.0062942344        1.8307247911       -0.3901191930
 H       -11.7094802212        2.3974954207        0.7492635673
 H       -15.3815579078        3.1904391644       -0.5001362047
 H       -15.9779979972        2.6955443899        1.0632686474
 H       -15.0439939942        1.5463147487        0.1672319432
 Na      -10.5639716199        3.7342004427        2.4438123993
