117

 C       -14.6649586821        1.5653513940        3.3918553897
 C       -13.6544844183        2.4785939218        2.7955891878
 O       -12.6760271482        2.8341518878        3.4561738730
 C       -13.8403463764        2.9675862809        1.2735261058
 C       -13.6948300507        4.6893997348        1.4279060616
 O       -12.6730247004        5.0392906462        1.8294415424
 C       -14.6507878707        5.8387983910        1.0022104535
 C       -14.3519626956        7.1124532742        1.7919972412
 C       -13.5415290713        8.1648705301        0.9350832467
 O       -13.1106707631        7.7743542094       -0.1471096077
 C       -13.2438225391        9.6371076407        1.4176811987
 C       -11.9583100223        9.3346544311        2.3178270011
 O       -12.2434100057        8.7699082495        3.3653708239
 C       -10.4461944489        9.6108155625        1.8902692317
 C        -9.3745598143        8.8313966033        2.8034288422
 C        -9.1453766955        7.3267387469        2.5931615626
 O        -9.7216902891        6.7681705119        1.6942269410
 C        -8.2793878906        6.3944038745        3.4823791371
 C        -7.7889279672        5.1276532054        2.6536478744
 O        -8.2164312408        4.0451485269        2.7696307295
 C        -6.8359391349        5.3999692987        1.4852646841
 C        -7.3020674690        4.4915479508        0.1944447634
 C        -8.7493320572        4.6225232652       -0.2189456299
 O        -9.6766730485        4.0932337946        0.4517362900
 C        -8.9386840271        5.3404085552       -1.5468017133
 C        -8.1923843194        4.5380335998       -2.6865701705
 O        -7.2405453114        5.1190619200       -3.1417181870
 C        -8.8995093830        3.1736535535       -3.1497606243
 C        -8.0235556132        2.0759691662       -3.7392234550
 C        -6.6594534308        1.7283932288       -2.9999001885
 O        -6.0887005288        2.6440394328       -2.3582644176
 C        -6.2473342886        0.3037337321       -2.8428448774
 C        -6.3636673225       -0.4280758848       -4.2132238413
 O        -6.5485086063        0.1505739430       -5.2824082782
 C        -6.3079561272       -2.0721518964       -4.2763284978
 C        -7.7770647936       -2.7838330858       -4.2155590015
 C        -8.1852156875       -3.0269443178       -2.7493921232
 O        -7.3627380337       -3.1858326428       -1.8552169963
 C        -9.7574931294       -3.1664191596       -2.2915041686
 C       -10.1683828545       -2.0816663025       -1.2398721047
 O       -10.1351869085       -0.8615289311       -1.4235800524
 C       -10.9211770744       -2.6585864494        0.0685591143
 C       -10.4811236640       -2.8823664275       -3.6469867244
 C       -10.0849637276       -4.6256967481       -1.7491627996
 C        -4.7420743004        0.2192016536       -2.4959088824
 C        -7.1170645616       -0.1384832412       -1.5565412786
 C       -10.4682675694        5.3079000499       -1.6929886728
 C        -8.2952034502        6.7396343362       -1.3983280880
 C        -7.1416844352        7.2038254459        4.2506128226
 C        -9.1861615900        5.6906761339        4.6390869275
 C       -13.2517698191       10.4236234089        0.0646595674
 C       -14.4962392358        9.9842658657        2.3543626679
 C       -12.6886644001        2.7779568605        0.2474428820
 C       -15.1689282030        2.6251161537        0.6338995965
 H       -14.1302734335        0.9167841565        4.1483809475
 H       -15.0619867945        0.7383663447        2.7583370977
 H       -15.4065536655        2.0853615357        4.0178522665
 H       -15.7272624083        5.5133641497        0.9954012080
 H       -14.4458912530        5.9658049163       -0.1432970464
 H       -13.7470342446        6.9564792784        2.6597201423
 H       -15.3645589676        7.5094035875        2.2133560721
 H       -10.2386426630       10.7144796684        2.0931519623
 H       -10.1468740414        9.2188345865        0.8771005204
 H        -9.7894224863        8.9317516995        3.8338457878
 H        -8.4726015091        9.4517670070        2.6871087647
 H        -5.8834535094        5.0063752268        1.6884642210
 H        -6.6901014195        6.4292582282        1.2203392245
 H        -7.1447618909        3.4745840267        0.4900727380
 H        -6.6570313309        4.6777429730       -0.6669786276
 H        -9.5848108013        3.4886744204       -3.9257384255
 H        -9.4867005738        2.8946150245       -2.2612035078
 H        -7.7240966877        2.4260159019       -4.7801690606
 H        -8.5939418010        1.2206831552       -3.9696794073
 H        -5.8251865128       -2.4585498081       -3.4088943144
 H        -5.6302179836       -2.2891517883       -5.1254113065
 H        -7.9988248113       -3.7148602584       -4.6133126741
 H        -8.3670997278       -2.1433272455       -4.8634576384
 H       -10.2003805206       -3.3254902146        0.5314155660
 H       -11.7316943640       -3.3952099454       -0.2039857731
 H       -11.1373789549       -1.9200933012        0.7770895061
 H       -10.4514653034       -1.8356539623       -3.7172457467
 H       -11.5831767000       -3.1001193899       -3.8205615008
 H       -10.0179912050       -3.3730284396       -4.4936262222
 H        -9.4628441826       -5.3110438063       -2.3532437790
 H       -11.1136670677       -4.9538540971       -1.8956472335
 H        -9.6701323752       -4.8117696705       -0.7096154932
 H        -4.5636450280        1.0998450643       -1.8381245128
 H        -4.0650220861        0.5010116356       -3.3522988832
 H        -4.3256594759       -0.6999687092       -2.0128400544
 H        -6.8165025078        0.5734363476       -0.8040894449
 H        -6.7812826803       -1.0549747482       -1.2278140038
 H        -8.1831425658       -0.0952363894       -1.9292505140
 H       -10.7634825521        6.2012780686       -1.2228301327
 H       -10.8923454774        4.3471867119       -1.3302920041
 H       -10.6845448307        5.3360355494       -2.8030489542
 H        -8.5654301227        7.0503334347       -0.3938036331
 H        -8.7257059946        7.4900070321       -2.0947242815
 H        -7.2642389523        6.8511734667       -1.4402948388
 H        -6.6332655130        7.6310772991        3.5013330409
 H        -6.4321120569        6.5377747085        4.7723123203
 H        -7.4090780316        8.0821687520        4.9509721825
 H        -8.5749969472        5.1166903829        5.1856257117
 H        -9.9585863533        4.9538824802        4.3020006489
 H        -9.4597809919        6.5269416677        5.2685678117
 H       -13.8288504509        9.8405254072       -0.6399831725
 H       -12.2896256048       10.4259369614       -0.5459094608
 H       -13.6765723349       11.5024577530       -0.0236739903
 H       -15.3528207321        9.4819767953        2.0810572989
 H       -14.6596561811       11.0562761212        2.4808190190
 H       -14.2581016926        9.5445062835        3.3451604992
 H       -12.5158892399        3.7042465714       -0.4195170151
 H       -12.8663460799        2.0401161850       -0.5802292812
 H       -11.7274852458        2.6713761049        0.6979890161
 H       -15.1718598994        2.9422145726       -0.4104113657
 H       -16.0332825233        3.1169642587        1.1245278379
 H       -15.3671765823        1.5359398147        0.6357922428
 Na      -10.6693091799        3.9270968302        2.2787989547
