117

 C       -14.7044614945        1.5910381042        3.3445558785
 C       -13.6804279340        2.6509107823        2.7945058692
 O       -12.6841460262        2.9593170176        3.4851079994
 C       -13.8677010184        3.3620393660        1.3813422535
 C       -13.5932056984        4.8161542752        1.3714029757
 O       -12.5341130695        5.2936148553        1.8128984916
 C       -14.6495642697        5.7898604821        0.9632386548
 C       -14.2493282856        7.1259158932        1.7086006942
 C       -13.4135878090        8.0984992791        0.8162151826
 O       -12.8068342088        7.6809605325       -0.1677662729
 C       -13.3152343796        9.4866836083        1.2285468968
 C       -12.0207022038        9.2468026530        2.2124058112
 O       -12.2671030941        8.7031340186        3.2808483800
 C       -10.5273467773        9.6117430005        1.9057626163
 C        -9.3469010479        8.7146578050        2.7019215659
 C        -9.1150136733        7.2078726456        2.4313258278
 O        -9.5868821479        6.5406366589        1.5472851282
 C        -8.1880692481        6.3778954201        3.4335544893
 C        -7.7027687806        5.2035422373        2.6018240948
 O        -8.2877122022        4.0817724539        2.7498076857
 C        -6.6967984507        5.3569377874        1.4947774323
 C        -7.2612044363        4.5547980800        0.3751535663
 C        -8.7111058441        4.6411003220       -0.1661329451
 O        -9.7232937104        3.7917866900        0.2231442201
 C        -9.0239357866        5.3940561199       -1.4495522669
 C        -8.1126892346        4.5627410965       -2.7427233024
 O        -7.1357629886        5.0251319581       -3.2503080542
 C        -8.7924782463        3.2489825333       -3.1036577332
 C        -7.9858535759        2.2106805650       -3.8131082693
 C        -6.7686835717        1.7169619365       -2.8993307326
 O        -6.1943621548        2.6771148571       -2.3471242217
 C        -6.3892203250        0.2720696521       -2.7387692205
 C        -6.4762623776       -0.6859609015       -4.0335877621
 O        -6.4736683570       -0.0478234630       -5.0681015289
 C        -6.3446296036       -2.1904992823       -3.9919600156
 C        -7.6262860948       -2.8746865671       -4.0685933585
 C        -8.1470158414       -3.0701266141       -2.6463007304
 O        -7.2569783027       -3.1819528167       -1.8278631353
 C        -9.8167686230       -3.1125154988       -2.3561792940
 C       -10.3118685386       -2.2140571209       -1.1735539455
 O        -9.9525712259       -1.0658464041       -1.2029783763
 C       -10.9735982922       -2.6840529823        0.1556738101
 C       -10.6342138900       -2.7306149305       -3.6265341901
 C       -10.1791012309       -4.5175437393       -1.8957658321
 C        -4.8061054122        0.2013656804       -2.5232218497
 C        -7.2618173400       -0.2607841935       -1.5626420318
 C       -10.5621405241        5.3981882519       -1.9284301397
 C        -8.3377950372        6.6924745834       -1.4863084684
 C        -7.0785082776        7.1236447988        4.2520377280
 C        -9.2992385328        5.9302189783        4.5424618032
 C       -13.1509929197       10.6039752167        0.1792037261
 C       -14.4652024433        9.9519916586        2.1742500487
 C       -12.8075126383        2.7336134975        0.4111870912
 C       -15.2744267619        2.7332559558        0.8811953727
 H       -14.4729188733        1.3583053258        4.4707669691
 H       -14.5693606851        0.6472723114        2.9839011514
 H       -15.7421314927        1.8956186756        3.3372143441
 H       -15.7196761736        5.4004753243        0.9891735994
 H       -14.4755566880        5.8289547694       -0.1184913718
 H       -13.5948878251        6.9387461127        2.5698040093
 H       -15.0676852540        7.6014660056        2.1987639933
 H       -10.3856908313       10.6418915983        2.2587187153
 H       -10.2171193246        9.4079894108        0.9057829605
 H        -9.3125709288        8.9573114796        3.8044345266
 H        -8.4754795234        9.1526922911        2.1823540629
 H        -5.6080601861        5.0146923538        1.5798257496
 H        -6.6903017371        6.3377241394        1.2459016882
 H        -7.2191894018        3.5503430977        0.7782058056
 H        -6.5927545770        4.5826797833       -0.5497933964
 H        -9.6747642797        3.6055851209       -3.6261571790
 H        -9.1397000511        2.8339251265       -2.0728629936
 H        -7.7710799195        2.3425743232       -4.9054163128
 H        -8.6413123716        1.3374783885       -3.8463970933
 H        -5.7810085060       -2.6021605249       -3.2366815926
 H        -5.7822101241       -2.3259478318       -4.9825690333
 H        -7.7164565308       -3.8049740903       -4.5540193275
 H        -8.1755440122       -2.2648915390       -4.8246383884
 H       -10.2870969526       -3.0104185946        0.8628125550
 H       -11.6231869058       -3.4615836016       -0.0099209714
 H       -11.4562048206       -1.7511391158        0.5873415332
 H       -10.3856590818       -1.7051378920       -3.9129469409
 H       -11.7662394713       -2.4364032962       -3.3442071883
 H       -10.7557937393       -3.4713367708       -4.4469492871
 H        -9.7953183290       -5.3071886500       -2.4689136837
 H       -11.2881613181       -4.5864998635       -1.8786146917
 H        -9.6738618147       -4.7396971746       -0.8839489223
 H        -4.3899274583        0.9195670342       -1.8759307028
 H        -4.2784871366        0.4609456613       -3.4636067209
 H        -4.4677690014       -0.8045760098       -2.2011672497
 H        -7.0538652194        0.6967825475       -0.8806797486
 H        -6.8745102056       -1.1530232828       -0.9754900745
 H        -8.2121492992       -0.2448233498       -2.0406335515
 H       -10.8779682239        6.3033921372       -1.3812526147
 H       -11.0621774022        4.4422634133       -1.7218763272
 H       -10.6829949004        5.5680918771       -3.0512002846
 H        -8.6897639002        7.3980595033       -0.7029064208
 H        -8.5092593632        7.1223339930       -2.4047519555
 H        -7.1890216608        6.7522717520       -1.3514123177
 H        -6.3933036523        7.6087334733        3.4707827583
 H        -6.6044794221        6.4618975268        4.9455812717
 H        -7.4737255432        7.9400431532        4.8058887836
 H        -8.9576173270        5.1386653308        5.2560035262
 H       -10.0346996401        5.4284802796        3.9597250287
 H        -9.6286889172        6.8209890698        5.0391698195
 H       -13.8326699499       10.2986619198       -0.7101922659
 H       -12.2301108553       10.7133715538       -0.3655473277
 H       -13.4901287157       11.5757314467        0.4462338394
 H       -15.5145921446        9.5585012233        1.8869648541
 H       -14.5587555658       11.0259111471        2.1347253908
 H       -14.3232687562        9.6498613622        3.2943308780
 H       -12.5368333860        3.2500639298       -0.5289859197
 H       -13.0698492554        1.7311266581        0.0296041211
 H       -11.8582101870        2.7319978599        0.9818156022
 H       -15.3316639799        2.7396284756       -0.1867050027
 H       -16.2772477429        3.1451161841        1.2658534389
 H       -15.2070744082        1.7024142398        1.1629650308
 Na      -10.8214402787        4.1519176389        2.2595773865
