117

 C       -14.2021236724        3.0906151431        4.2275324860
 C       -13.3900592292        3.5139424345        3.0365930027
 O       -12.1762562566        3.6109950622        3.1834773237
 C       -14.0276649467        3.6611734995        1.4682265267
 C       -13.7698563823        5.1183310945        0.9830424706
 O       -12.7217497001        5.7420814034        1.1671446010
 C       -14.8391607773        5.9990669862        0.3013822609
 C       -14.6961644886        7.4334085087        1.0279896471
 C       -13.5199937501        8.2527259327        0.3596701622
 O       -12.8889604699        7.7369148188       -0.6123270969
 C       -13.0505934732        9.6289777809        0.9269423027
 C       -11.6214341190        9.2578296307        1.7283936411
 O       -11.8163403895        8.9932469844        2.9256407000
 C       -10.0774346080        9.5305256585        1.3402963144
 C        -9.0479677370        8.5984803650        2.1742155574
 C        -9.1518737980        7.0920413512        2.2707474139
 O       -10.0741654285        6.6114897864        1.6279749026
 C        -8.1773059160        6.3958180162        3.4075991657
 C        -7.8891497094        4.9901820639        2.7296347983
 O        -8.4378458861        4.0173540418        3.0281400344
 C        -6.8657848384        5.0254915110        1.3643282952
 C        -7.3655881193        3.8838907415        0.3931001115
 C        -8.5203738633        4.2797484363       -0.4592634595
 O        -9.6417382588        3.8406111021       -0.1032674277
 C        -8.5746881646        5.1991511817       -1.6805035690
 C        -8.1041598650        4.4260658146       -3.0703628434
 O        -7.3642253599        4.9625599250       -3.8484700310
 C        -8.7731641882        3.0387840023       -3.3778327905
 C        -7.6900713029        1.9875523259       -3.7538366522
 C        -6.7566656114        1.5841982907       -2.6860752236
 O        -6.3421629002        2.4469080732       -1.8582845660
 C        -6.2650778479        0.1054786141       -2.2536620232
 C        -6.5823736328       -0.8703506200       -3.3419566933
 O        -6.8142395159       -0.6109957506       -4.5206884768
 C        -6.4843326863       -2.4258838521       -3.0729110562
 C        -7.8116716152       -3.2410476043       -3.3768150884
 C        -8.5592550725       -3.2388883009       -2.0523387302
 O        -7.8924436076       -3.4083566134       -1.0075460985
 C       -10.1891525425       -3.0851862166       -2.1617418229
 C       -10.6340441358       -2.7662289756       -0.7632183525
 O       -10.6098057829       -1.5927964402       -0.4295250810
 C       -11.2245227762       -3.8104636863        0.2996432304
 C       -10.7251142303       -2.0606846352       -3.1836276077
 C       -10.7011935385       -4.4581252205       -2.4854719938
 C        -4.6958964738        0.1104341314       -2.2155688710
 C        -6.6051927352       -0.2688908181       -0.7695703928
 C        -9.9590909279        5.4712554004       -2.2760904070
 C        -7.7736536900        6.5067756409       -1.4968427926
 C        -6.8876904009        7.2989613499        3.8534225293
 C        -9.0659047936        6.0423679432        4.6759798334
 C       -12.8764241184       10.5175320411       -0.3560225004
 C       -14.0484134368       10.2725185035        1.9552382742
 C       -13.2467010290        2.7585986656        0.3929936236
 C       -15.4372204014        3.1406869763        1.4142811645
 H       -15.3629045727        3.0467802442        4.0968554015
 H       -14.1388057122        3.7683351761        5.0370240311
 H       -13.7087962184        2.3361279740        4.7124043660
 H       -15.7761307291        5.6005024858        0.3688895138
 H       -14.4599148749        6.1578430891       -0.6964349661
 H       -14.4888782039        7.3361440531        2.0446517740
 H       -15.5982815432        8.0852354637        1.0900023127
 H        -9.7929064380       10.5369301649        1.5380935040
 H        -9.8877588317        9.2863060100        0.3189161878
 H        -9.0089160239        8.9510359039        3.2063092938
 H        -8.0392696799        8.8863721015        1.8062427526
 H        -5.8201261265        4.6831114511        1.6942782683
 H        -6.6885771735        6.0757635465        0.9383318570
 H        -7.8802022094        3.2047321723        1.1509087256
 H        -6.5653822133        3.4192984995       -0.1922671825
 H        -9.3846387301        3.0067635313       -4.3396735498
 H        -9.3656408722        2.8045919701       -2.5049796637
 H        -6.9793420223        2.3764843153       -4.5509229577
 H        -8.0624112227        1.2023923485       -4.3735424507
 H        -6.3197415072       -2.6334070033       -1.9985632367
 H        -5.6785068457       -2.9404920542       -3.6249388249
 H        -7.5376228422       -4.3597966241       -3.4917034236
 H        -8.1743094444       -2.9800152980       -4.4011550677
 H       -11.7461737092       -3.2061597360        1.0309651938
 H       -10.4325660063       -4.4649863788        0.7190025139
 H       -11.9457961391       -4.4932502533       -0.1275687035
 H       -10.0743106098       -1.1710826225       -3.3152860306
 H       -11.7773271689       -1.5937786219       -2.8827371344
 H       -10.7815349714       -2.5849418938       -4.1389760346
 H       -10.3656784386       -4.7228314526       -3.4993343920
 H       -11.7620217820       -4.4760055015       -2.4027311083
 H       -10.4018848564       -5.2667273203       -1.7604702220
 H        -4.4095212968        0.8649496022       -1.5050178171
 H        -4.2742905050        0.3586024944       -3.1755034885
 H        -4.2769384851       -0.7674778318       -1.7734761577
 H        -6.1913931861        0.5171983604       -0.0960039838
 H        -6.0554635993       -1.1411243055       -0.6420666452
 H        -7.7119821079       -0.2993877978       -0.6337525571
 H       -10.5213575581        6.1418050886       -1.6355722967
 H       -10.5107786661        4.5023834432       -2.3428488339
 H        -9.6775827719        5.9161482053       -3.2832971581
 H        -7.7520865670        6.9296275725       -0.4576759745
 H        -8.0755352623        7.3600797658       -2.1380922728
 H        -6.7344620694        6.3799072443       -1.7842728314
 H        -6.5927955263        7.9050347075        3.0620309911
 H        -6.1186899990        6.5538465465        4.0333108139
 H        -7.1389717360        7.8825556749        4.8085976285
 H        -8.2752548186        5.7915418953        5.2806997613
 H        -9.8605912151        5.2226263422        4.6004456876
 H        -9.7084271279        6.8942952032        4.9935689393
 H       -13.6982737983       10.5558256876       -0.9982822044
 H       -12.0140648897       10.1510103380       -0.8338577289
 H       -12.5650325257       11.5588662442       -0.2024606283
 H       -15.0817724039       10.2883601525        1.4995653256
 H       -13.9847517350       11.2990548840        2.3920994945
 H       -14.0217197608        9.6304582977        2.9474479777
 H       -13.4985249970        3.1787596939       -0.6059254936
 H       -13.4819946868        1.7025369386        0.4600675938
 H       -12.2010961389        2.7977488523        0.4395804452
 H       -15.7133736012        3.3206272928        0.3712145368
 H       -16.2192459347        3.3193359662        2.1529647837
 H       -15.2612442845        2.0525337837        1.4213829930
 Na      -10.7909326281        4.2964331121        1.7772643893
