117

 C       -14.2649968789        3.4958948588        4.1601052893
 C       -13.4633602016        3.5588318764        2.8792920969
 O       -12.1867699633        3.5560798536        3.0458155853
 C       -14.0497238518        3.7202735422        1.4408184014
 C       -13.6557176326        5.2399772493        1.0695797684
 O       -12.5449880842        5.6858084347        1.1781590268
 C       -14.8820277375        6.1160300112        0.5381736478
 C       -14.6512347252        7.5037595993        0.9851168611
 C       -13.4801510414        8.1681455397        0.2690436684
 O       -13.1089430295        7.7169311081       -0.7818782555
 C       -13.0526916098        9.5001036292        0.7644500045
 C       -11.5546796198        9.3192196685        1.7686445674
 O       -11.6684754093        9.0449106337        2.9009013417
 C       -10.0719339607        9.3082094886        1.1455799805
 C        -8.9392594419        8.8554987630        2.1025620356
 C        -9.1826258617        7.3726123509        2.4976828907
 O       -10.0661134948        6.7256785814        1.9017172546
 C        -8.1908846270        6.3926931583        3.3509261575
 C        -7.8656513589        5.0328905011        2.5689714643
 O        -8.4823395309        3.9921195928        2.8727920141
 C        -6.8882782992        4.9792396865        1.5100013486
 C        -7.3300190280        3.9243985593        0.3550868011
 C        -8.6986996875        4.2220692247       -0.4828740777
 O        -9.7265315602        3.7104802200       -0.3053929130
 C        -8.4306191657        5.1575359571       -1.8433683636
 C        -7.8719713471        4.3250533134       -3.0699893401
 O        -7.2818619252        4.9175743517       -3.9517264955
 C        -8.6533494557        2.9819551123       -3.2488767792
 C        -7.7162247705        1.9043574734       -3.7545484006
 C        -6.8107708151        1.5371581739       -2.5050416562
 O        -6.3079389872        2.4917820587       -1.9356629953
 C        -6.2649557277        0.0139874987       -2.1307259532
 C        -6.6535784305       -1.0825669729       -3.2641739697
 O        -6.8262356001       -0.6085454214       -4.4129938080
 C        -6.4843976447       -2.6077288448       -2.9671710401
 C        -7.7812498554       -3.3346102307       -3.2435940509
 C        -8.6967058474       -3.3120107737       -2.0261086144
 O        -8.2830014899       -3.4151475083       -0.8826467793
 C       -10.2468531605       -3.1858428728       -2.1119719042
 C       -10.8221293507       -2.7541667554       -0.5710248612
 O       -10.8692584225       -1.5787331046       -0.3007127244
 C       -11.1736745014       -3.8973671738        0.3099520193
 C       -10.7112866390       -1.9507676197       -2.9607758974
 C       -10.4499372483       -4.5909851421       -2.7814926768
 C        -4.6561948917        0.1665921244       -2.2727239577
 C        -6.5520638834       -0.2330157551       -0.6264453055
 C        -9.8859549753        5.5378408836       -2.1733724381
 C        -7.5796790809        6.3369379163       -1.5420245484
 C        -7.0110400103        7.1467694938        3.7205579064
 C        -8.9937695836        6.0453128169        4.6368293775
 C       -12.8655686496       10.5567509200       -0.3709558858
 C       -14.0992478311       10.0359899581        1.7271902163
 C       -13.3133101470        2.7337931332        0.5876686747
 C       -15.5713302438        3.4003181042        1.4347229902
 H       -15.3235520186        3.2582590501        4.1124568454
 H       -14.3475849634        4.5020019563        4.6511757032
 H       -13.6212397384        3.0720132936        5.0442666469
 H       -15.8244218796        5.7705726298        0.9559087158
 H       -14.7729056320        6.1805290076       -0.5134180879
 H       -14.4314202160        7.4777472677        2.0428724938
 H       -15.5758296490        8.1305735471        1.0088411726
 H        -9.7861646848       10.3488948260        0.7581191193
 H       -10.0238819034        8.6247191651        0.2915116705
 H        -8.8857345084        9.4337638094        3.0265743086
 H        -7.9690126790        9.0344769607        1.6798535693
 H        -5.9236043871        4.5266257299        1.9206972254
 H        -6.6598327647        5.9378339124        1.2744127196
 H        -7.4206164088        2.9512972372        0.8039050827
 H        -6.4671278283        4.0241593947       -0.4034216200
 H        -9.4645906558        3.0742115294       -3.9265828196
 H        -9.0096678214        2.7147519595       -2.2284139304
 H        -7.0097124520        2.1095123650       -4.5893516504
 H        -8.2520595795        1.1445573904       -4.2178891546
 H        -6.3003246074       -2.7350184678       -1.9569444333
 H        -5.6132047179       -3.0889630210       -3.5773925498
 H        -7.6294718068       -4.4048169390       -3.3555080387
 H        -8.0625973508       -2.9979090306       -4.3115167318
 H       -11.7240115005       -3.6005905975        1.2339937588
 H       -10.1976188942       -4.3003344148        0.4851667085
 H       -11.7573255960       -4.7711206510       -0.2486023382
 H        -9.7694687210       -1.4928666287       -3.3213655390
 H       -11.1557812559       -1.1887139231       -2.3105329498
 H       -11.2905854976       -2.1403901960       -3.8031926776
 H       -10.4205513245       -4.4247666794       -3.8020109721
 H       -11.4361567686       -4.9566564085       -2.5017162146
 H        -9.8204499597       -5.4425397162       -2.4293320748
 H        -4.4053047607        1.0154090128       -1.7284125583
 H        -4.4456080531        0.3270575283       -3.3124174217
 H        -4.0510015732       -0.5960569027       -1.8410278839
 H        -6.2623324120        0.5681515508        0.0180598869
 H        -6.0544612829       -1.1655149630       -0.3895294829
 H        -7.5271985884       -0.3567393100       -0.6113154881
 H       -10.3071106281        6.1380724221       -1.3694846575
 H       -10.4450867041        4.5908126965       -2.1709738652
 H        -9.8194357046        6.0487518216       -3.1404745324
 H        -7.6461580574        6.4878193550       -0.4477517405
 H        -7.9828709772        7.2140904755       -1.8811993787
 H        -6.4961742279        6.4882879309       -1.8557494569
 H        -6.5287369454        7.4419231844        2.6576703036
 H        -6.3272031884        6.4310778127        4.1422132952
 H        -7.2681200402        7.9555016564        4.3151503421
 H        -8.2202552454        5.6392781922        5.3719340256
 H        -9.7679126036        5.3259452969        4.3952399863
 H        -9.6518823361        6.8706158792        4.9295367042
 H       -13.8906951574       10.8026665113       -0.7359198637
 H       -12.3069066463       10.1665878858       -1.1530388859
 H       -12.3969075460       11.4388126258       -0.1160630589
 H       -15.0711274947       10.2690593963        1.2051415356
 H       -13.9153952552       10.9423083581        2.2347576339
 H       -14.2461931025        9.3406133727        2.5633419512
 H       -13.5947468674        2.9253283599       -0.4086154595
 H       -13.4737316791        1.7489193541        0.8635956194
 H       -12.2321769007        2.9000070292        0.6329937009
 H       -15.8870387761        3.7009246850        0.4680300196
 H       -16.1237291853        3.9369870804        2.2720627872
 H       -15.7587124720        2.3596299707        1.5478148094
 Na      -10.6530440364        4.5110201381        1.7162698404
