117

 C       -14.2713975975        4.4397889065        4.2325916530
 C       -13.4985919190        3.7894328810        3.0368216050
 O       -12.3173703909        3.4379399168        3.2060513185
 C       -14.1847261696        3.6787217040        1.5925752711
 C       -13.8620245266        5.1370258394        0.9595440473
 O       -12.7198339213        5.5365815264        0.7200049093
 C       -14.9909135711        6.1857747293        0.6693589296
 C       -14.5722814173        7.7517380063        0.9859570774
 C       -13.5291099674        8.4720498527        0.0913799743
 O       -13.1066063293        7.9954686326       -0.9464365319
 C       -12.7266069577        9.8086320744        0.6499253806
 C       -11.4978540837        9.2552115012        1.5153478389
 O       -11.5863673515        9.2272325794        2.7127305305
 C       -10.1273761014        9.0679560450        0.8023011175
 C        -9.0655278588        8.6031859735        1.7776645571
 C        -9.2972466703        7.2688450637        2.4415032267
 O       -10.3806343546        6.6473360182        2.3910505605
 C        -8.2383949968        6.5334911050        3.1917470455
 C        -8.1033350911        5.1786836693        2.4245066147
 O        -8.7871276720        4.2892117217        2.6999375164
 C        -6.9487102062        5.1064904040        1.3822624536
 C        -7.0768646190        4.0417730998        0.3113313949
 C        -8.2988748016        4.3086104529       -0.5414410677
 O        -9.4904218903        3.8270141355       -0.2819848000
 C        -8.2283949330        5.1327043421       -1.8458610224
 C        -7.9217760851        4.1139859869       -3.0552970565
 O        -6.9927995950        4.2702000005       -3.7928474903
 C        -8.7814141572        2.9309476543       -3.3156847701
 C        -7.9243977661        1.6491518934       -3.3755501085
 C        -6.6737771880        1.3925686290       -2.5658572066
 O        -6.1886108980        2.3383917409       -1.9299299545
 C        -5.9729584173        0.0111144333       -2.2306197857
 C        -6.4907812442       -1.2098723509       -3.0425615540
 O        -7.0641127969       -1.1337210347       -4.1621480701
 C        -6.4301037331       -2.6089552185       -2.4643458221
 C        -7.7191269816       -3.3476473073       -2.7311786904
 C        -8.7651016060       -3.3569348714       -1.6215710509
 O        -8.4229896760       -3.1821584387       -0.4468375454
 C       -10.3124402118       -3.2233033365       -1.9606789817
 C       -11.0782514935       -3.0466855410       -0.5885225307
 O       -11.8539634495       -2.1792876221       -0.2483595618
 C       -11.0629352710       -4.3765060737        0.0956684589
 C       -10.5056759474       -1.8021646735       -2.7508101950
 C       -11.0537048919       -4.3847093890       -2.7542923746
 C        -4.4446698031       -0.0203892607       -2.1239110219
 C        -6.3774408463       -0.2807357133       -0.7537187543
 C        -9.6413373313        5.8928684836       -2.1068457615
 C        -7.2174937374        6.1996250099       -1.9379162672
 C        -6.8284681423        7.3042877096        3.4054001048
 C        -8.8089333194        6.3778558701        4.6046534512
 C       -12.1978344660       10.4921933366       -0.5719579796
 C       -13.6877330093       10.5819307694        1.5319333407
 C       -13.5742827687        2.6410970222        0.5628853108
 C       -15.6500786705        3.1423951088        1.6810759147
 H       -14.7308575890        3.7747571340        4.9480731946
 H       -15.0948185477        4.9964495151        4.0222750522
 H       -13.6460849672        5.1985387813        4.7707645432
 H       -15.8335593702        5.9038024280        1.2507220949
 H       -15.0972192622        6.1083099051       -0.4289971895
 H       -14.1448146951        7.7716177510        1.9440348504
 H       -15.4903759698        8.3854440899        1.0915194022
 H        -9.7569456432        9.9388946978        0.3117514922
 H       -10.2644464031        8.3169225873        0.0601155092
 H        -8.8923307910        9.3760002396        2.5469750759
 H        -8.0578635295        8.6327617711        1.2813925810
 H        -5.9684588062        4.8547732731        1.9805884347
 H        -6.6986231012        6.0639081003        0.9213409097
 H        -7.2136160141        3.0643492514        0.8112906972
 H        -6.1267055831        3.9912430823       -0.2719096044
 H        -9.2784566262        3.1902871254       -4.2997606179
 H        -9.5555609977        2.9188854000       -2.5465933924
 H        -7.5243653395        1.5146982244       -4.4574886566
 H        -8.5224201755        0.7546453148       -3.3024036343
 H        -6.4360870781       -2.7721592801       -1.4129832348
 H        -5.4868502968       -3.1054073889       -2.8383525017
 H        -7.3685139309       -4.4028641629       -2.6925809567
 H        -8.1999154847       -3.0734541704       -3.7115973879
 H       -11.5707401093       -4.3977161696        1.0060399492
 H       -10.0994022990       -4.7591922711        0.1815937449
 H       -11.6951941118       -4.9791220323       -0.6107183842
 H       -10.7942692357       -1.9784113964       -3.7956495709
 H        -9.6025070687       -1.0809260799       -2.4397295067
 H       -11.3298954995       -1.2222157854       -2.2287810400
 H       -10.5789159944       -4.4456484137       -3.7159257804
 H       -12.0950055788       -4.1748135193       -2.9540560712
 H       -10.9825967523       -5.3494739914       -2.1353147297
 H        -4.0850035283        0.7507242057       -1.4380691714
 H        -4.0863124456        0.1836670229       -3.1795209676
 H        -3.9844190513       -1.0250943232       -1.8778577120
 H        -6.1272251159        0.7096544504       -0.1862431757
 H        -5.8119540158       -1.1823320736       -0.3319958752
 H        -7.3778370760       -0.5566919095       -0.7346280620
 H        -9.9005678345        6.4390558751       -1.2261504313
 H       -10.3674044851        5.0870776401       -2.2389749811
 H        -9.4143021942        6.6073097207       -2.9398756805
 H        -7.5625953296        7.2158838491       -1.6787169282
 H        -6.7968857969        6.3071560137       -2.8775582490
 H        -6.3208284242        6.0189332488       -1.2710478275
 H        -6.1233393579        7.1675754711        2.4917554894
 H        -6.3608708459        6.7326128340        4.1474511871
 H        -7.0719341249        8.3031647089        3.6444592544
 H        -8.3848475302        5.4925298984        5.0630372335
 H        -9.8976755517        6.3950018271        4.6902988599
 H        -8.5392289283        7.2601392374        5.1879595421
 H       -12.9586894135       10.9442071188       -1.2991582026
 H       -11.5235923430        9.8473037257       -1.1407730444
 H       -11.6433636857       11.3647472906       -0.2030153050
 H       -14.7618375059       10.4416552202        1.1422175710
 H       -13.4966978217       11.6503893923        1.4960810787
 H       -13.8583939284       10.1353139809        2.5496787771
 H       -14.1100468542        2.5089441140       -0.4227778676
 H       -13.3485944955        1.6645759325        1.0117779876
 H       -12.5680079252        3.0825497203        0.3932610553
 H       -16.2240909912        3.3350932836        0.7914281573
 H       -16.1139867396        3.5449430906        2.6235103820
 H       -15.5184080078        2.0811020304        1.8347929447
 Na      -10.7937257788        4.5335508195        1.4846161235
