117

 C       -14.1910582540        4.5058635919        4.1647545961
 C       -13.4906368161        3.9242719022        2.9717484994
 O       -12.3348885797        3.4967590556        3.1454592845
 C       -14.1766583254        3.7409549033        1.6086059270
 C       -14.0260301670        5.2288754445        0.8845378820
 O       -12.9138556514        5.3685871185        0.5849661574
 C       -15.0086742347        6.4117797327        0.5706235268
 C       -14.4799826502        7.7283542222        1.0967569256
 C       -13.3650597488        8.3887404037        0.1555198485
 O       -13.1905824394        8.0088715832       -0.9310118536
 C       -12.6528559937        9.9032566655        0.5953677543
 C       -11.4105819876        9.4515408163        1.5510918836
 O       -11.4989858243        9.1495624350        2.6987515477
 C       -10.1240761064        9.0130750070        0.8210286795
 C        -9.0049086063        8.4898797125        1.6153542826
 C        -9.3472899836        7.2312275750        2.4445148406
 O       -10.4657036773        6.6700803199        2.3278190752
 C        -8.1430664309        6.5651491654        3.3345221283
 C        -7.9279512994        5.1560625450        2.4963246102
 O        -8.7373140145        4.2082528403        2.6029810328
 C        -6.8941042787        5.1921187720        1.3955597263
 C        -7.1558140120        4.1365805936        0.3435134816
 C        -8.2980309776        4.3565297350       -0.5675793240
 O        -9.4135816513        3.9476524253       -0.2263435950
 C        -8.0448810265        5.1091106179       -1.8891486205
 C        -7.7784248417        3.9960028118       -3.0781527912
 O        -6.8731256293        4.1980709200       -3.8275731970
 C        -8.7546585545        2.7393463397       -3.1211571547
 C        -7.9698960892        1.4588899666       -3.3979070978
 C        -6.6682519254        1.4453954791       -2.5133488423
 O        -6.1764198879        2.3850834026       -1.9909898522
 C        -6.0678197807        0.0015433734       -2.0986686389
 C        -6.6391637179       -1.3040428197       -2.9672732895
 O        -7.0174318548       -1.1401945397       -4.1268039974
 C        -6.4814220399       -2.7458083252       -2.3798127955
 C        -7.7220421516       -3.6482995500       -2.7111142987
 C        -8.8313890348       -3.2994234222       -1.6330611912
 O        -8.4514572140       -3.0654647348       -0.5397003015
 C       -10.3913532291       -3.1726994507       -1.8884054831
 C       -11.3534020999       -3.2384563608       -0.5843032282
 O       -12.0555501907       -2.3230754879       -0.2871616328
 C       -11.2051080622       -4.5562614453        0.2836141327
 C       -10.4135955866       -1.7122409704       -2.5125873776
 C       -10.8946438992       -4.2718024501       -2.7778787669
 C        -4.5276195358       -0.0082970724       -2.2414121127
 C        -6.3712410126       -0.1762162313       -0.5886512072
 C        -9.5916958342        5.7625844360       -2.1681385546
 C        -6.9232740495        6.2155714491       -1.9837419038
 C        -6.8938431923        7.5344335981        3.2181236690
 C        -8.7008581167        6.3810198805        4.8042995726
 C       -12.2343204508       10.5951498177       -0.7444113175
 C       -13.6896427288       10.8224055905        1.2702914348
 C       -13.4128432023        2.7424273370        0.6936627975
 C       -15.6444401498        3.1836757538        1.7988296826
 H       -14.3946829584        3.9675535225        5.0138265585
 H       -15.1817919468        5.0429054273        4.0196067444
 H       -13.5286325053        5.4109399702        4.4098927659
 H       -15.9741024934        6.2603920646        1.0280937236
 H       -15.0030434478        6.4267557736       -0.4506610790
 H       -14.3866547801        7.7281851094        2.1819232548
 H       -15.2852957878        8.4394760040        0.8835463929
 H        -9.7181845323        9.8790989950        0.2907887251
 H       -10.4462688066        8.3377682571        0.0788103472
 H        -8.7023550187        9.3097471010        2.2815856732
 H        -8.1019057652        8.3997989013        1.0244677379
 H        -5.8502512323        5.1501086505        1.8872292921
 H        -6.9296269962        6.1668030904        0.9519434929
 H        -7.4303447092        3.2050144124        0.8376582432
 H        -6.1967054505        3.9079618214       -0.2842906887
 H        -9.5114766793        3.0467097359       -3.8302063205
 H        -9.2617431951        2.7182930232       -2.0855404138
 H        -7.7613823629        1.3120601230       -4.4729054290
 H        -8.4686796534        0.5390747243       -3.1266223241
 H        -6.2895852518       -2.8066937388       -1.3168937161
 H        -5.5566336542       -3.2056544581       -2.8834554079
 H        -7.3792848403       -4.6934310318       -2.7972938408
 H        -8.1012672129       -3.1909263018       -3.7050022585
 H       -11.2730667185       -4.3889763381        1.3648171418
 H       -10.1973120944       -4.8637613084        0.1462740660
 H       -11.9523878096       -5.3406056467        0.0128680187
 H       -10.7410724117       -1.9199976340       -3.5826628646
 H        -9.4456463436       -1.3384398758       -2.3983803037
 H       -10.9851422770       -0.8835002562       -2.0130679018
 H       -10.2432998156       -4.4492330059       -3.6099514866
 H       -11.8916088923       -4.0077603393       -3.2233492478
 H       -10.9881429597       -5.1532648085       -2.1329140744
 H        -4.1998058165        0.8007988195       -1.5890525045
 H        -4.1773126963        0.2572914097       -3.2582675907
 H        -3.9980061149       -0.9355027342       -1.9707025561
 H        -6.2497510925        0.7061154282       -0.1107796581
 H        -5.7068530833       -0.9621580968       -0.1952092805
 H        -7.3453141100       -0.6595574593       -0.5049595778
 H        -9.8928990631        6.4321707001       -1.3178100902
 H       -10.1834258627        4.8297875682       -2.1379938577
 H        -9.5482853769        6.3074448714       -3.0958947825
 H        -7.3516216243        7.2294815148       -1.9186218554
 H        -6.3416100034        6.2466211793       -2.8821506042
 H        -6.1763577055        6.1883757792       -1.1363575894
 H        -6.6774442631        7.6949722923        2.1278936713
 H        -6.0449919530        6.9458594663        3.5429266234
 H        -7.1417910031        8.4170539004        3.7161362036
 H        -8.1732737126        5.5198520471        5.3861205513
 H        -9.7306206313        6.0433690383        4.7085780469
 H        -8.7454786972        7.2688550310        5.4363742104
 H       -13.0508921699       10.9258598521       -1.4099222719
 H       -11.5500347824       10.0545966110       -1.3565299298
 H       -11.8153100937       11.4847565331       -0.4055369979
 H       -14.6503867656       11.0709912691        0.6700170853
 H       -13.1463607231       11.8186626534        1.3890886462
 H       -14.1547384517       10.4384562038        2.1889328149
 H       -13.9033806259        2.6430535574       -0.2633665231
 H       -13.4161075392        1.7631280829        1.1531781599
 H       -12.3169303041        2.9799066302        0.5381462119
 H       -16.2441503657        3.3740103275        0.9190884201
 H       -16.0263186392        3.7641697103        2.6819721638
 H       -15.6327485414        2.1389740633        2.0642529447
 Na      -11.1013613285        4.3193403838        1.4723814282
