117

 C       -14.1339225253        4.6483963766        4.1022221111
 C       -13.4537474081        4.0084738230        2.9840170463
 O       -12.3488128281        3.5772195724        3.0683933915
 C       -14.2323952836        3.9069187627        1.5883170056
 C       -14.0138006320        5.2601874709        0.8222602205
 O       -12.8935006841        5.4282181616        0.3462440172
 C       -14.9992539912        6.4296515710        0.6085039083
 C       -14.3642583628        7.8324385217        1.1641415889
 C       -13.4189444925        8.5426945844        0.1586869798
 O       -13.1636967460        7.9554232155       -0.9057969203
 C       -12.6403710041        9.8555698694        0.5717419319
 C       -11.4884990382        9.4105666111        1.4427413801
 O       -11.6199061606        9.2979877982        2.6745372942
 C       -10.1455516768        9.0287944473        0.6312314669
 C        -9.0395526631        8.4304936137        1.5381869071
 C        -9.4346052321        7.1895363250        2.3677188497
 O       -10.4437608883        6.6169978289        2.2427575469
 C        -8.2029142781        6.5835666275        3.2565347160
 C        -7.8905998009        5.2968595852        2.5483953760
 O        -8.6708321655        4.3012761866        2.6481414215
 C        -6.7593336935        5.2814195350        1.4424387228
 C        -7.0016823471        4.0765791543        0.4521120966
 C        -8.2644665524        4.4645100061       -0.5157756670
 O        -9.3463280938        4.1604413636       -0.2461939568
 C        -8.0509304471        5.0553393685       -1.9377219261
 C        -7.7015022678        3.9251044129       -3.0372222949
 O        -6.9030593905        4.1405127313       -3.9245021725
 C        -8.5619807535        2.6559999272       -2.9250915669
 C        -7.9049952468        1.3508577008       -3.3114277454
 C        -6.7260246112        1.2238275580       -2.3706031634
 O        -6.2305848565        2.2951593354       -2.0940979987
 C        -6.1224002254       -0.1322139100       -1.9480822163
 C        -6.6264723849       -1.3682259810       -2.8977722420
 O        -6.9952005092       -1.0833172070       -3.9682890387
 C        -6.5844969029       -2.7856184448       -2.4148653163
 C        -7.9209324918       -3.7198722007       -2.6000973411
 C        -8.9009495827       -3.2606938868       -1.4622962410
 O        -8.3881735168       -2.9667023900       -0.3854095638
 C       -10.3490688510       -3.1873718145       -1.9081355505
 C       -11.2996311235       -3.3643088902       -0.5617506612
 O       -12.2171938839       -2.5806191707       -0.3547493360
 C       -11.3302271054       -4.5509857073        0.4378162057
 C       -10.4977232186       -1.6971868557       -2.3844520393
 C       -10.7633181625       -4.1600953015       -3.0272953889
 C        -4.6290839713        0.0298593249       -2.4793424119
 C        -6.4727186260       -0.1596565209       -0.4067040960
 C        -9.3815281981        5.6736788077       -2.4251128530
 C        -6.9479473025        6.0470911775       -1.9333521308
 C        -7.0158821881        7.5150370382        3.2634092736
 C        -8.4972738571        6.3279373373        4.7339402796
 C       -12.2154175786       10.4961447538       -0.7888926759
 C       -13.6025088433       10.8918854561        1.1710252545
 C       -13.4556243066        2.7945534380        0.8244040816
 C       -15.7476036746        3.3955453593        1.8440168597
 H       -14.2687565135        3.9514524641        5.0231629728
 H       -15.2380321697        4.9165962329        3.9300985854
 H       -13.6825520715        5.5469974041        4.4218059669
 H       -15.9566522970        6.3301858738        1.1289938806
 H       -15.0548544786        6.3932228598       -0.4686727231
 H       -13.7121941436        7.5903257486        2.0900981266
 H       -15.1374424346        8.4961155550        1.5090091973
 H        -9.7878166304        9.9255640127        0.0676258207
 H       -10.4629409638        8.2794717813       -0.1410206586
 H        -8.5251759918        9.2312145098        2.0535826960
 H        -8.2127482487        8.0567004276        0.9753307421
 H        -5.8785412100        5.3537141153        1.9492406140
 H        -6.8541601086        6.1796882011        0.7810521367
 H        -7.2951104870        3.1118388031        0.9272130732
 H        -6.1645116559        3.8685052505       -0.1920853076
 H        -9.3542485697        2.9394759763       -3.6202507471
 H        -9.0327726937        2.6567536656       -1.9221287471
 H        -7.5820398889        1.4220165114       -4.2927640071
 H        -8.5878426914        0.4533758552       -3.2758247565
 H        -6.2192855082       -2.8484204168       -1.3180044636
 H        -5.8659952145       -3.3448931575       -2.9724105151
 H        -7.4890348181       -4.7258874281       -2.4487940040
 H        -8.2450547732       -3.5851665349       -3.6176406817
 H       -11.1315660842       -4.1697170174        1.4964478759
 H       -10.4470184502       -5.2981886837        0.3382928168
 H       -12.3069296781       -4.9329347585        0.4077735371
 H       -10.9356305934       -1.8093929194       -3.3390041297
 H        -9.5939103463       -1.2065052702       -2.3070152909
 H       -11.0654010490       -1.0575787660       -1.7444789931
 H       -10.1060986939       -4.1541233331       -3.9422671800
 H       -11.7273933996       -3.7788413484       -3.3933667336
 H       -10.7919109792       -5.1394026698       -2.6604726572
 H        -4.2883917372        0.9297116832       -1.9468706292
 H        -4.5077986917        0.1961412510       -3.5105942079
 H        -4.0314202254       -0.7878119481       -2.1987724825
 H        -6.3025288516        0.8361667062       -0.0983425385
 H        -5.8843595831       -0.7897129130        0.1126808898
 H        -7.4793264158       -0.5745521529       -0.2167034699
 H        -9.5664776273        6.5466793800       -1.7290273802
 H       -10.1116509080        4.8787370922       -2.3020198591
 H        -9.1814011022        6.0335723469       -3.4146426888
 H        -7.0895826235        7.1190457063       -1.9354710377
 H        -6.2260880426        5.9253225610       -2.8443162405
 H        -6.3457952598        5.8411646455       -1.1068850936
 H        -6.9042578808        7.9819532174        2.3989592827
 H        -6.1446920410        6.8575109424        3.4147814316
 H        -7.2881835749        8.2551930672        4.0687386619
 H        -7.6126442043        5.9042089406        5.2279436034
 H        -9.3076130376        5.5324229176        4.8631700501
 H        -8.8079624126        7.2484784813        5.3048404067
 H       -13.0629286032       10.6218399051       -1.3226789890
 H       -11.6379482610        9.8719611621       -1.4365151793
 H       -11.8320176998       11.5132146003       -0.6210785133
 H       -14.3049440007       11.3364015903        0.5339282227
 H       -12.8750646305       11.6842782562        1.4873220104
 H       -14.2260963149       10.5514018314        1.9968328555
 H       -13.9381268527        2.5968572748       -0.0848465863
 H       -13.5787172619        1.8722631594        1.3662168645
 H       -12.4379956442        2.9950992971        0.7649997200
 H       -16.2669708751        3.2258809865        0.8780025605
 H       -16.2668847539        4.0730093618        2.4458441070
 H       -15.6441525490        2.4388998274        2.3923928742
 Na      -11.1355828941        4.1902773150        1.5007596506
