117

 C       -14.1775152874        4.8748590833        4.1988513132
 C       -13.5437817979        4.1090462189        3.0323038392
 O       -12.4171694743        3.6854835334        3.1295732744
 C       -14.2518937848        3.9906580081        1.5782917679
 C       -13.8941860667        5.3651396128        0.7009820277
 O       -12.7271894102        5.4707315527        0.1620206346
 C       -14.9234657755        6.4941431745        0.8046669752
 C       -14.2412967501        7.8049206510        1.3014214443
 C       -13.5072489740        8.4854757357        0.1119332045
 O       -13.1439399468        7.9055920406       -0.9281932180
 C       -12.8176976008        9.9034969558        0.3814539367
 C       -11.5938667421        9.3448367015        1.3106072514
 O       -11.6494202157        9.4763827664        2.5037201249
 C       -10.3309998696        8.9736908244        0.6138683014
 C        -9.1747137815        8.3929662714        1.5012701383
 C        -9.4394540658        7.1336289000        2.2792451921
 O       -10.4560794087        6.5033107599        2.1600907360
 C        -8.2459147769        6.7265529406        3.1672383199
 C        -7.9992200705        5.3589283295        2.4246352113
 O        -8.6183935649        4.3614128116        2.7175911868
 C        -6.7200344542        5.2374873574        1.4213719263
 C        -7.0217742743        4.1795286249        0.3670723756
 C        -8.2314088297        4.4028781367       -0.5376474060
 O        -9.3600226420        4.3561629977       -0.0302776547
 C        -7.9055615994        4.9490558463       -1.9067749395
 C        -7.6387565912        3.7720115428       -3.0012817004
 O        -7.0498444783        4.0711770877       -4.0039899356
 C        -8.6784902371        2.5949526479       -2.9334254698
 C        -8.0102932537        1.3448912227       -3.3353878526
 C        -6.7313834331        1.0869332673       -2.4154041729
 O        -6.1490424413        2.0678083382       -1.8955340318
 C        -6.1407066505       -0.1831157023       -1.8844954111
 C        -6.7575429192       -1.3664678779       -2.7257290860
 O        -7.0292943405       -1.0731395881       -3.8825362501
 C        -6.4749564847       -2.8947922804       -2.3493344142
 C        -7.8783967234       -3.6075365739       -2.4749757801
 C        -8.8595923493       -3.2945646880       -1.3036934868
 O        -8.5533229968       -2.8746782313       -0.1646694762
 C       -10.3991360412       -3.2368776296       -1.7833723904
 C       -11.4396733833       -3.4845828390       -0.6061335685
 O       -12.3691520767       -2.7014005252       -0.5436557864
 C       -11.2384952065       -4.5778160628        0.4325609789
 C       -10.6810786633       -1.6949552481       -2.2071784512
 C       -10.7237681751       -4.0429577132       -3.0446208404
 C        -4.6970300572       -0.0678149091       -2.4420662785
 C        -6.3763609405       -0.3462366678       -0.4114873584
 C        -9.1344259311        5.6106732175       -2.6955579903
 C        -6.7371920878        6.0587812744       -1.9575268876
 C        -6.8492151118        7.6511156141        3.3746700924
 C        -8.5217622605        6.1903265301        4.6331376606
 C       -12.1318487287       10.3904329002       -0.9673719964
 C       -13.5353627326       10.9066000484        1.2750164550
 C       -13.6857821718        2.7614944476        0.8208869851
 C       -15.7360362383        3.7818591450        1.7807210620
 H       -14.1498214668        4.0243625421        4.9972475194
 H       -15.1853060208        5.0704966923        4.1780060591
 H       -13.6656818948        5.7459660882        4.5845754004
 H       -15.6940966200        6.2528783998        1.5549642317
 H       -15.3439452180        6.5827849160       -0.3030305180
 H       -13.4234268071        7.6027117028        2.0386178442
 H       -14.9842795760        8.4805322496        1.7962371453
 H       -10.0567771754        9.9139424191        0.0732424636
 H       -10.6009847246        8.2045518221       -0.2108594456
 H        -8.6879827946        9.1561528946        2.0896405981
 H        -8.3119729524        8.1043441354        0.8885953894
 H        -6.1322977374        4.7278250012        2.1392386138
 H        -6.1625152412        6.1064673634        1.0062597467
 H        -7.1702267571        3.2532107400        0.9280834006
 H        -6.2218609419        4.0106204231       -0.2636366575
 H        -9.5732813828        2.8663709345       -3.5635137714
 H        -9.0219458022        2.5659166289       -1.9575566442
 H        -7.7785402065        1.3884476090       -4.4078385850
 H        -8.7033145483        0.4938729108       -3.1852497515
 H        -5.9911078040       -2.9308155874       -1.3278616840
 H        -5.8773032025       -3.4300614038       -3.0367406329
 H        -7.6363931862       -4.6643297809       -2.3777120441
 H        -8.1793858399       -3.3388576200       -3.4333234515
 H       -10.5750741367       -4.1984712274        1.2350925994
 H       -10.5725112369       -5.3873281783        0.0877966254
 H       -12.2158681038       -4.8564761872        0.8858486028
 H       -11.2337581347       -1.7887560837       -3.0294482524
 H        -9.7973172381       -1.0246222121       -2.1910184785
 H       -11.1708438519       -1.2155136347       -1.4674167032
 H       -10.1660299422       -3.5450752716       -3.8637402815
 H       -11.7178167929       -3.8696669886       -3.3111909995
 H       -10.3309188860       -5.0873352435       -3.0691956593
 H        -4.2728685357        0.8493136572       -2.1099074975
 H        -4.6012478412       -0.0688543809       -3.5066410987
 H        -4.1950185819       -0.9121413735       -2.0289271119
 H        -5.9345019384        0.6612672715       -0.0094926553
 H        -5.7432715914       -1.1673763839       -0.0162122744
 H        -7.3314864543       -0.6154027887       -0.1318475392
 H        -9.2091085866        6.5277984446       -2.1992624168
 H        -9.9780687223        4.9561907323       -2.6056810108
 H        -8.7711777247        5.7963796341       -3.7307087673
 H        -6.9862484892        7.0965362747       -1.7943560588
 H        -6.3736017950        6.0994587916       -2.9951379322
 H        -5.8709554679        5.8826486089       -1.3241907043
 H        -6.4350341130        8.0509473424        2.3949387309
 H        -6.2155812563        6.9343181826        3.8284916996
 H        -7.1820659991        8.4893200309        3.9890768749
 H        -7.6410165750        6.2015561748        5.2183458297
 H        -8.9188103320        5.1385653724        4.7553119325
 H        -9.1912330686        6.9084449897        5.2055530108
 H       -12.8486741675       10.6482939562       -1.7653235418
 H       -11.7124732636        9.5150355573       -1.4347998295
 H       -11.4694339680       11.2550876085       -0.7614378733
 H       -14.3491130005       11.4656267522        0.9495061330
 H       -12.7985174583       11.4739259848        1.6923706048
 H       -13.9380956691       10.3173282422        2.0972654468
 H       -14.3620434492        2.5527464512        0.0189447974
 H       -13.7277946808        1.8533493993        1.3574840048
 H       -12.5909247435        2.9405975810        0.5012271516
 H       -16.0249066169        3.2205756339        0.9001687419
 H       -16.3478811466        4.6428971858        1.8799356293
 H       -15.8391873217        3.1117442474        2.6294072723
 Na      -10.8925601638        4.2161204770        1.4371781399
