117

 C       -14.2590603489        4.9734806957        4.1461327103
 C       -13.5451772545        4.2742523173        2.9821981529
 O       -12.4118971472        3.8275708884        3.1990112683
 C       -14.3009730627        4.0910314211        1.5330340727
 C       -13.7736864051        5.4015308379        0.8282872074
 O       -12.7330505131        5.3622913871        0.1943674344
 C       -14.6825153958        6.5783078869        0.9278813060
 C       -14.0602980494        7.8767053335        1.2347665983
 C       -13.4180089025        8.4219976349        0.0730562474
 O       -13.3356085536        7.8168918400       -0.9252094509
 C       -12.7472968490        9.8581845437        0.3323793977
 C       -11.4421254324        9.4769278446        1.2342021426
 O       -11.6925578223        9.5695078460        2.4079478650
 C       -10.3776428904        8.7848856361        0.4839988565
 C        -9.2633115788        8.5187831003        1.4628014521
 C        -9.4084022869        7.2315511324        2.3406502995
 O       -10.3881914166        6.4528661636        2.1531099501
 C        -8.1320348792        6.5921131391        3.2407683324
 C        -7.7285009822        5.2101200980        2.5083896279
 O        -8.5891775677        4.4199686057        2.5843563694
 C        -6.6682311585        5.0561542367        1.4497077867
 C        -6.9485119458        4.0812843196        0.3648187114
 C        -8.0549443049        4.6820795603       -0.5630190194
 O        -9.2898314868        4.5476465045       -0.1645274161
 C        -7.8202118009        5.0087264990       -2.0067686896
 C        -7.7084495240        3.7580535071       -3.0340087729
 O        -7.0807761048        3.8524860553       -4.0424416838
 C        -8.7233661207        2.5733246020       -2.9549201265
 C        -7.9769064129        1.2711845904       -3.1718180219
 C        -6.7772720625        1.1158401295       -2.2528081580
 O        -6.3352879813        2.1524197667       -1.7961200568
 C        -6.0413987353       -0.2998592929       -1.8840118706
 C        -6.6304275168       -1.4802833323       -2.8110256871
 O        -7.2592190260       -1.3440971954       -3.9029500804
 C        -6.4630846485       -2.8950593283       -2.2221115191
 C        -7.8551817454       -3.5695656718       -2.2639314430
 C        -8.9323422848       -3.1583739179       -1.2363074590
 O        -8.7367507408       -2.8918729688       -0.0692162009
 C       -10.5127258513       -3.0670798565       -1.7109463021
 C       -11.5807395934       -3.5302672237       -0.6077586879
 O       -12.6407750711       -2.9571012313       -0.6317003401
 C       -11.0728448208       -4.6316568177        0.2909060122
 C       -10.6991687221       -1.6060665238       -2.0537436817
 C       -10.6760960469       -4.0344383876       -2.9216106127
 C        -4.5999778081       -0.3342481481       -2.2219796351
 C        -6.1711689040       -0.5927140090       -0.4060769064
 C        -9.0570858130        5.7274857033       -2.7990845825
 C        -6.5767159535        5.8764438754       -2.0522085985
 C        -7.0495310959        7.6483994282        3.2486239393
 C        -8.7742756692        6.2267814499        4.5979314599
 C       -12.3187832609       10.4561949834       -1.0349183219
 C       -13.5444764284       10.9080172410        1.1723508300
 C       -13.8472237282        2.8085614002        0.8410888716
 C       -15.8385690129        4.1020572212        1.7400237710
 H       -14.1933744453        4.3938459961        4.9404812893
 H       -15.2666568565        5.3139068704        4.0625676671
 H       -13.6200019644        5.9068281886        4.3944854354
 H       -15.3557018536        6.4678066267        1.8248209104
 H       -15.2310950920        6.6314041198       -0.0632647286
 H       -13.3956782332        7.9096611604        2.0614213221
 H       -14.9725965911        8.5161196261        1.4778261721
 H       -10.1396275817        9.5056181933       -0.3251146756
 H       -10.7920848659        7.9186816700       -0.0408506373
 H        -9.2877146291        9.4281593564        2.1108229794
 H        -8.2097283954        8.5276952277        1.0833136043
 H        -5.5610025917        5.0110225518        1.8893942418
 H        -6.7667087541        5.9783624420        0.9268889920
 H        -7.1997758897        3.1128753720        0.6992898765
 H        -6.0411173345        3.9592778568       -0.2773637542
 H        -9.5496309257        2.6617307738       -3.6688692791
 H        -9.1751598201        2.5852207399       -1.9566042923
 H        -7.4254882918        1.2536092601       -4.2041992594
 H        -8.6578264402        0.4447345802       -3.1443438161
 H        -6.0607744316       -2.7859679289       -1.3077107429
 H        -5.8317466280       -3.6361210998       -2.8105813402
 H        -7.6973966196       -4.5945517688       -2.0511573961
 H        -8.1149469640       -3.3300919730       -3.3314776332
 H       -10.1389951946       -4.3864469284        0.6972661633
 H       -10.7994903078       -5.4871273391       -0.1955002625
 H       -11.8666794832       -4.7598921156        1.0938162857
 H       -11.6169798101       -1.6095658723       -2.7285072517
 H        -9.8036332438       -1.1189552130       -2.4034129535
 H       -10.7622495579       -1.0504798841       -1.1127451572
 H       -10.4438086494       -3.5640455511       -3.8363351388
 H       -11.7105962561       -4.3457953452       -3.0255210126
 H        -9.8707596213       -4.8305131461       -2.8816645435
 H        -4.0975045861        0.5060479421       -1.7993951108
 H        -4.3917843595       -0.2637581562       -3.3096134063
 H        -4.2314436099       -1.2986084829       -1.7999984370
 H        -5.5775552429        0.2695805416       -0.0801147032
 H        -5.5959151942       -1.5590351437       -0.0135097229
 H        -7.1917061471       -0.6837046136        0.0432090344
 H        -9.2092034402        6.6391391343       -2.3113858435
 H        -9.8261781885        4.9847250904       -2.7151893407
 H        -8.7191308765        5.8359650203       -3.8233495656
 H        -6.7714181260        6.7242695237       -1.3927444151
 H        -6.4490184920        6.3489745518       -2.9255583545
 H        -5.5817293248        5.4998504872       -1.6718725158
 H        -6.7946428632        7.7753673310        2.1063803111
 H        -6.2253389449        7.3419149088        3.8801146845
 H        -7.5457868306        8.5404858414        3.4690206213
 H        -8.1638464724        6.2359919682        5.5538979020
 H        -9.2265308698        5.2862446557        4.6235708921
 H        -9.4078797604        7.0650418707        4.7949309226
 H       -13.1694865161       10.9990615904       -1.6592102581
 H       -12.1662780164        9.6183167214       -1.7431319691
 H       -11.4918922126       11.1462617801       -0.8482516566
 H       -14.4646446048       11.1505180234        0.6197349177
 H       -12.9545845548       11.7157427059        1.5330296740
 H       -13.9088340431       10.4488199090        2.0681330047
 H       -14.6883754221        2.5549605859        0.1235795161
 H       -13.9299972070        1.8981437298        1.4848835406
 H       -12.8241494049        2.8517497917        0.3899736055
 H       -16.1401784731        3.5325306472        0.9124829031
 H       -16.3706709841        5.0938781356        1.6285583055
 H       -16.0873031739        3.5575777002        2.6093971882
 Na      -10.6801935680        4.3249494473        1.4708988413
