117

 C       -14.3738653706        5.1666689101        4.3384742074
 C       -13.6914330342        4.4003367871        3.1355162177
 O       -12.4937664873        4.2133573091        3.2152345834
 C       -14.4541772312        4.0818601311        1.7675086631
 C       -13.9796246304        5.4378601995        0.9290373563
 O       -12.7182288439        5.5414640870        0.7144898320
 C       -14.7753173585        6.7653048389        1.0055208511
 C       -13.7369227948        7.8860616706        1.1533444813
 C       -13.4428604068        8.5755310763       -0.2001470873
 O       -13.5898046515        8.2062461864       -1.2929772191
 C       -12.7521565158       10.0617936554       -0.0212107700
 C       -11.4070457047        9.7844320023        0.8370841539
 O       -11.3955560033       10.1636276670        1.9749914397
 C       -10.3629752782        9.0564997515        0.2311644874
 C        -9.2170200332        8.5392597411        1.2092241717
 C        -9.3631609659        7.2333538281        2.0316213840
 O       -10.4742897703        6.6995986532        2.0856257552
 C        -8.2508460364        6.5575839070        3.0827927175
 C        -7.8636718274        5.1739496124        2.3966468715
 O        -8.5142853190        4.1978126110        2.8150191291
 C        -6.6205917268        5.1603822767        1.3661343430
 C        -6.7465823317        4.2292268040        0.1025743516
 C        -7.9903161146        4.6580646681       -0.8384515528
 O        -9.0814729013        4.8427459709       -0.3763702907
 C        -7.5885799444        5.0733912635       -2.3515982834
 C        -7.5961909195        3.5560915556       -3.1674099160
 O        -6.9130265920        3.4027241107       -4.1260432932
 C        -8.5647183579        2.4609478248       -2.7402187276
 C        -7.9788319365        1.0144892156       -2.8639608273
 C        -6.7427896788        0.7287837285       -1.8681680892
 O        -6.1606618809        1.7260584720       -1.4008923980
 C        -6.0691427022       -0.6128639831       -1.6497488861
 C        -6.6976896338       -1.7447921783       -2.4379152088
 O        -7.2951402857       -1.5455954755       -3.5270688372
 C        -6.7070753127       -3.1386148230       -1.7995446799
 C        -8.0295907721       -3.8384334771       -1.8934565989
 C        -9.0635755454       -3.0883158001       -1.1054126252
 O        -8.8490498594       -2.4602164864       -0.0633975414
 C       -10.6050732837       -3.1263663508       -1.6884362025
 C       -11.6143981012       -3.7530604705       -0.6285148899
 O       -12.7912382623       -3.5416498177       -0.6593424285
 C       -11.1630140734       -4.9180584019        0.2614798544
 C       -11.0558726521       -1.6168815525       -1.7149271271
 C       -10.9428029826       -3.7713660147       -3.0574700659
 C        -4.6184338862       -0.3900319416       -2.2895975640
 C        -6.1342005484       -0.7666890909       -0.0515217143
 C        -8.6095750732        6.2292963965       -2.8934964346
 C        -6.1460442695        5.5084852161       -2.5997602924
 C        -6.9045303615        7.2964676152        3.3307660684
 C        -8.9257273181        6.2513242435        4.4778994506
 C       -12.2153052864       10.5855491339       -1.3613597861
 C       -13.6224124238       11.1295447024        0.7806405557
 C       -13.8682775617        2.7630791910        1.0662391763
 C       -16.0485443666        3.9320199404        1.8175177685
 H       -14.3821785808        4.3991394197        5.0389351234
 H       -15.4132975587        5.4391127959        4.1447625011
 H       -13.7632521921        6.0480883302        4.8139228991
 H       -15.5718851623        6.6178497359        1.7383020842
 H       -15.2781122170        6.9480239817       -0.0308579467
 H       -12.7800695974        7.5633182825        1.5207940120
 H       -14.1883094683        8.6434804961        1.8550342755
 H        -9.9403218340        9.7453964510       -0.5232419327
 H       -10.7234792320        8.1946852741       -0.4124881488
 H        -9.0270326657        9.2424977873        1.9969250173
 H        -8.3172610329        8.5380076372        0.6132923321
 H        -5.6576248483        4.9300090317        1.8213210605
 H        -6.5768259317        6.1868913337        1.0289725665
 H        -6.8156885698        3.2201975795        0.5190411086
 H        -5.8172853472        4.2412106569       -0.4286089905
 H        -9.3994584090        2.4207235602       -3.5059693835
 H        -9.0418704535        2.6354267704       -1.8382494340
 H        -7.5368587530        0.8813855467       -3.8646509378
 H        -8.8463087195        0.3784585288       -2.7590403525
 H        -6.4924808479       -3.1753255860       -0.7735334868
 H        -5.8264066653       -3.5362530257       -2.3437740806
 H        -7.9694056233       -4.7847131599       -1.3494267133
 H        -8.3702727286       -3.9007154071       -2.9158189841
 H       -10.0672048704       -5.0058410254        0.3413868644
 H       -11.3582386099       -5.8831464485       -0.2083535940
 H       -11.6845711918       -4.8565496734        1.3292146829
 H       -11.7807841457       -1.4426378403       -0.9680771005
 H       -11.4917621798       -1.3868410455       -2.6974475706
 H       -10.1709706892       -1.0455945072       -1.6122258930
 H       -10.0842375796       -3.8595290024       -3.6988522472
 H       -11.7225384792       -3.2501099157       -3.5294182962
 H       -11.1253698309       -4.8843297115       -2.9566780490
 H        -4.0210847001        0.3689058157       -1.8528108875
 H        -4.8451450139       -0.0424100583       -3.3017471560
 H        -4.1179582960       -1.3478489275       -2.3305004006
 H        -6.0322997748        0.2050702201        0.4178918168
 H        -5.3899271237       -1.4555442890        0.3813471088
 H        -7.1285547050       -1.0702996070        0.1158410981
 H        -8.2870862593        7.0559708617       -2.3225242991
 H        -9.6145576673        5.8768285306       -2.6240840869
 H        -8.4215752260        6.3429286591       -4.0043433987
 H        -5.5477046959        6.2191906543       -1.9696997487
 H        -6.1200850706        5.8894936526       -3.5582629768
 H        -5.5255682361        4.5502686410       -2.6834413095
 H        -6.4747199355        7.5354167970        2.2578185456
 H        -6.3713686754        6.5720079881        3.8676851142
 H        -6.9783662146        8.1751404908        3.9186186763
 H        -8.2993194049        5.6311722575        5.1223158101
 H        -9.7482368333        5.5661851897        4.4236380063
 H        -8.9304923010        7.1100098486        5.1521265436
 H       -13.0479551009       10.9630888970       -2.0239432740
 H       -11.7825126341        9.7530153317       -1.8297946195
 H       -11.5049530688       11.3119889787       -1.1451022278
 H       -14.6995528401       10.8258048105        0.7538621503
 H       -13.5109533561       12.0848981924        0.3428569525
 H       -13.2912963596       11.3019208363        1.7920678386
 H       -14.0168580551        2.7006952916        0.0286426496
 H       -14.3181068918        1.9448195752        1.5031568422
 H       -12.7938467583        2.7298387390        1.2791658817
 H       -16.5193525546        4.2663740381        0.9124080728
 H       -16.4879584228        4.5009068240        2.6840591589
 H       -16.1659881248        2.8703759528        1.8876775505
 Na      -10.6469626627        4.4235380054        1.6092154509
