117

 C        -7.2304141041       -6.1545748292        2.3952038072
 C        -8.6635126801       -5.7622370798        2.7298481623
 O        -9.4601163994       -6.5084926591        3.2952441061
 C        -9.0990510360       -4.2780459459        2.6950288697
 C       -10.1628089238       -3.9956502900        1.5182925087
 O        -9.9778356868       -4.3150578706        0.3143601070
 C       -11.4658291170       -3.4204244378        1.9054356895
 C       -12.4696601695       -3.4975577234        0.8070488123
 C       -12.5066853719       -2.1846495456        0.0311795756
 O       -12.0275207246       -2.1198709145       -1.0685594044
 C       -13.3219353735       -0.9632253920        0.5781772254
 C       -12.0944074836        0.0890345246        0.8092291267
 O       -11.5385783300        0.0020758382        1.8917849247
 C       -11.6130420526        0.9639563329       -0.3647899301
 C       -10.1248764827        1.2249045029       -0.2982582285
 C        -9.6889559343        2.4487039896       -1.1477305162
 O        -9.4884955007        3.4625161078       -0.4869543819
 C        -9.3948167604        2.5324112092       -2.7270252869
 C       -10.5289867363        3.1718248149       -3.3700150358
 O       -11.6476010389        3.0777516949       -2.8915684659
 C       -10.4751895125        3.9049236383       -4.7117725984
 C       -11.0807830261        5.2901500355       -4.7375905269
 C       -10.6645305692        6.1285280712       -3.5388470062
 O        -9.5869671736        5.8655430315       -3.0490447089
 C       -11.7002214163        7.1597552383       -2.7179877593
 C       -10.7530150849        8.0382337241       -1.9682218069
 O       -10.0981110305        7.6234701584       -0.9861592126
 C       -10.4539998722        9.3900704842       -2.5375819668
 C        -9.6247252737       10.3828574899       -1.6065220615
 C       -10.2680220057       10.7556340848       -0.3025786461
 O       -11.4718167340       10.6207489835       -0.1124274305
 C        -9.3345666148       11.3721077384        0.9775619714
 C        -8.3627707316       10.2217792124        1.5595823273
 O        -7.3103581930       10.0875398141        1.0147692709
 C        -8.7902988789        9.2457555144        2.6430276191
 C        -7.6111284597        8.1908342458        2.9869429164
 C        -7.7225482735        6.9169117446        2.0965209142
 O        -8.6640266449        6.6390745473        1.4041305837
 C        -6.4767223242        6.0251145592        2.0134044672
 C        -5.8569954822        6.6378448957        0.5975663404
 O        -6.3017523830        6.1735296609       -0.4456393511
 C        -4.7643624161        7.7171736543        0.6567343469
 C        -5.4968144560        6.2437136713        3.1811351134
 C        -6.7211474083        4.5234802009        1.9416133108
 C        -8.5045811284       12.6260855946        0.3252581432
 C       -10.2821411485       11.9947362212        2.0918938785
 C       -12.6535140322        7.6846082064       -3.7562343189
 C       -12.4077524615        6.2354536912       -1.6306250424
 C        -7.9178348496        3.0652967310       -3.1165800214
 C        -9.3931310144        1.0705602103       -3.2417832576
 C       -14.3061930309       -0.5329083060       -0.4908325202
 C       -14.1824263596       -1.1625772890        1.8948450560
 C        -9.9051972847       -3.9810439549        4.1098932570
 C        -7.9080545911       -3.2514239929        2.4461850073
 H        -6.8434282217       -5.8118370533        1.4272570598
 H        -7.2184318488       -7.2053080125        2.2504479814
 H        -6.4289567676       -5.8951251203        3.1331467498
 H       -11.3670571417       -2.3966634645        2.1704920176
 H       -11.8874466692       -4.0493696170        2.7589462550
 H       -13.4523666451       -3.6958591936        1.1150443883
 H       -12.1319142694       -4.2824468840        0.0792838023
 H       -12.1594836134        1.9752571960       -0.3937352609
 H       -11.8594486028        0.4546510039       -1.3259718025
 H        -9.5275885661        0.4060005630       -0.6290563571
 H        -9.8428887334        1.3979708716        0.7157163830
 H       -10.8752017581        3.2297771710       -5.5265877765
 H        -9.4395478327        4.1111825136       -5.0261862053
 H       -12.1297434255        5.4339905726       -4.8193271074
 H       -10.6828504548        5.6808342703       -5.6921707672
 H       -11.4142172846        9.9507778279       -2.6414929194
 H        -9.9657544436        9.3145216512       -3.5499239334
 H        -9.6384034496       11.3775952991       -2.2104461825
 H        -8.5966332423       10.0747278373       -1.5685288108
 H        -9.6835410472        8.6645661359        2.6116519183
 H        -8.9492214981        9.9253563593        3.4980078101
 H        -7.5238626523        7.9929435046        4.0428634142
 H        -6.6569126930        8.7399438498        2.7551616769
 H        -4.9879056855        8.7661451972        0.6768122098
 H        -4.1686738156        7.5352790556       -0.1753925823
 H        -4.2274347116        7.4669466023        1.6135757367
 H        -5.8992798403        5.7782362792        4.0837681413
 H        -5.3864983088        7.3102698397        3.4114603650
 H        -4.5593123683        5.7438602866        2.8667333219
 H        -6.1168715247        4.0193913128        2.6692729424
 H        -6.4251977798        4.0734045826        0.9035960687
 H        -7.6670728762        4.2235779403        2.2873221483
 H        -8.0007923395       13.1835986777        1.1396480092
 H        -9.1689340035       13.2383796384       -0.3419584408
 H        -7.6785111538       12.3601784219       -0.2810672155
 H        -9.8826909226       12.7978194342        2.6862403091
 H       -10.4709753032       11.2080479452        2.8692624942
 H       -11.2500612460       12.2360623783        1.6732905395
 H       -13.4674041107        6.9438726425       -3.8107420279
 H       -12.1584532023        7.8648449497       -4.6990658246
 H       -12.9844241102        8.5748416825       -3.4425292119
 H       -12.7138173365        5.2846183234       -1.9569529661
 H       -13.2782820506        6.7171503892       -1.2600298091
 H       -11.7140789290        6.1750707448       -0.8742902757
 H        -7.8728868487        3.3440243227       -4.2365174851
 H        -7.2777717382        2.2338096610       -3.1240266301
 H        -7.5547732056        3.9059168864       -2.5293848183
 H       -10.3436498385        0.5621608896       -3.1703621555
 H        -8.6509168640        0.5306615963       -2.7073796956
 H        -9.1300501657        1.1010994192       -4.3112312920
 H       -15.3878499271       -0.7489934360       -0.3716491114
 H       -14.0715107192       -0.8361819105       -1.5317893650
 H       -14.3039272735        0.5427111605       -0.5571887062
 H       -15.0983353006       -1.7522218737        1.7989587199
 H       -14.5831006172       -0.1992543006        2.1023226852
 H       -13.6666710003       -1.6708061106        2.7108138092
 H       -10.8045902929       -4.6071691572        4.2637420860
 H       -10.2932395979       -2.9950986789        3.9867251594
 H        -9.2863737864       -4.2211943195        5.0069063042
 H        -7.1387831118       -3.6135342431        3.1339411717
 H        -8.1696283743       -2.2868408053        2.8625129264
 H        -7.5473984088       -3.1163854976        1.3674942794
 Na       -8.5886156126        5.7509952175       -0.7501337498
