117

 C       -14.5711591138        4.8286001886        4.6058896725
 C       -13.6948762938        4.4560719283        3.3846724172
 O       -12.4897261578        4.1752653466        3.5125827393
 C       -14.3303674252        4.2775337675        1.9519535334
 C       -13.7372095452        5.4428844404        1.0886154443
 O       -12.7039770068        5.3436192337        0.5795285986
 C       -14.6112461499        6.7146008059        0.6939224428
 C       -13.9621251093        8.0693153974        1.1387570874
 C       -13.4344589995        8.8088143847       -0.3048117373
 O       -13.8756427316        8.4294323777       -1.4367069988
 C       -12.5736922025       10.1074230146       -0.1844325506
 C       -11.2246000642       10.0248039321        0.7334891646
 O       -11.1172610311       10.5687683104        1.8924471050
 C        -9.9886816452        9.1222032755        0.3308258451
 C        -8.9058367697        8.5823124293        1.3157642316
 C        -9.3937418463        7.3600664791        2.0341112159
 O       -10.5077804845        7.0092636857        1.8334314521
 C        -8.3766997344        6.5816886829        2.8534533561
 C        -7.9554020385        5.1604343006        2.1897528414
 O        -8.6194572169        4.2016656575        2.3668020007
 C        -6.6446157853        5.2494000572        1.3003515317
 C        -6.8034400317        4.2066605120        0.2040841675
 C        -7.8420125243        4.7169316695       -0.8184335613
 O        -9.1164114464        4.9095458485       -0.5821756870
 C        -7.2988166352        4.8723862315       -2.2661362283
 C        -7.4789081612        3.4074255372       -3.0208024946
 O        -7.1211623079        3.2802811452       -4.1630095555
 C        -8.5555346020        2.4973887428       -2.5093009743
 C        -8.0196748665        1.0436242931       -2.6983607519
 C        -6.7696415111        0.8993338378       -1.7230626172
 O        -6.2684138315        1.8834395302       -1.2696147969
 C        -6.1376758437       -0.6148830024       -1.3912066641
 C        -6.9011341445       -1.9234582288       -2.0726577184
 O        -7.2664312453       -1.7636165314       -3.1627068827
 C        -6.8747221226       -3.4212959207       -1.5568499732
 C        -8.2242880007       -4.1136687897       -1.8186985150
 C        -9.3351611613       -3.1459183862       -1.1848172899
 O        -8.9418253129       -2.2430386579       -0.4603520015
 C       -10.7584266461       -3.2155193182       -1.5712284459
 C       -11.7279345518       -3.9516124366       -0.5708752027
 O       -12.9317815016       -3.6679664110       -0.5593453787
 C       -11.0848426283       -5.1068251842        0.2202947992
 C       -11.3427261951       -1.7440514518       -1.4770962088
 C       -10.9198336542       -3.6186212859       -3.0589711300
 C        -4.7588203221       -0.6069698356       -2.0857398027
 C        -5.7736633117       -0.9191689894        0.0613982419
 C        -8.3308081374        5.6788587999       -3.2277470929
 C        -5.7713368514        5.4188298102       -2.4804265636
 C        -7.1250137124        7.5257397965        3.0953570068
 C        -9.0108268445        6.2520512202        4.2255070231
 C       -12.1766408956       10.5120297765       -1.6535449927
 C       -13.5785707609       11.1737018641        0.3816206231
 C       -13.6986361007        2.9881633910        1.2305922575
 C       -15.9009279104        4.1553399265        1.9393226244
 H       -14.8022252372        3.9659259506        5.3923358071
 H       -15.4220120025        5.2804877172        4.1917569916
 H       -14.0107321206        5.4733275368        5.1587034446
 H       -15.5400061055        6.6177573002        1.3306486263
 H       -14.9533085249        6.7085803837       -0.3313096012
 H       -13.0738345164        7.9407508637        1.8240521405
 H       -14.7562423349        8.6627846508        1.5477348912
 H        -9.4876741517        9.4835751084       -0.5964636689
 H       -10.4070531734        8.1938018186       -0.0223253186
 H        -8.2758694667        9.3648588996        1.8221328945
 H        -8.2103899316        8.1659109273        0.5486785279
 H        -5.7422356243        5.0747088514        1.9270074306
 H        -6.4203019046        6.2892738064        0.8784351354
 H        -7.0253365883        3.1898808203        0.5541497671
 H        -5.8484959452        4.0983269815       -0.3196287993
 H        -9.4272434036        2.7400857858       -3.0535359505
 H        -8.8131351054        2.5988010226       -1.3951531425
 H        -7.6742636501        0.9122200149       -3.7226465338
 H        -8.7397904405        0.2124912147       -2.3848184066
 H        -6.8704708685       -3.4453076572       -0.3683802415
 H        -6.0415611740       -3.9777604178       -1.9242350086
 H        -8.1297141701       -5.0472327533       -1.2547215444
 H        -8.3936277479       -4.2562847432       -2.8799667380
 H       -10.0052232793       -5.1942098720        0.2193146404
 H       -11.4674299049       -6.0284299208       -0.2639914237
 H       -11.4550291208       -5.1434929189        1.1753933025
 H       -11.2448614306       -1.3358134603       -0.4301131784
 H       -12.4512365747       -1.9045452501       -1.7366644731
 H       -10.6431903324       -1.0837979919       -2.0547452073
 H       -10.0922606206       -3.1643398958       -3.6540596450
 H       -11.9347913030       -3.2573232026       -3.3819067928
 H       -10.7958410082       -4.6311328612       -3.2633632800
 H        -4.1640470806        0.2870027436       -1.8557855068
 H        -5.0405209478       -0.6236662004       -3.1171928793
 H        -4.2232388287       -1.4946614149       -1.8390856507
 H        -5.1518866367       -0.1041532904        0.6401216868
 H        -5.1569278243       -1.8575656176        0.0224440652
 H        -6.7367975778       -1.0203481447        0.5765406245
 H        -8.0241940694        6.7417717284       -3.1950126365
 H        -9.3343837624        5.4731243449       -2.9615262034
 H        -8.1117793333        5.2010489948       -4.1075282582
 H        -5.8783997247        6.4739443327       -2.5926621594
 H        -5.2831697520        5.0970688164       -3.4846082910
 H        -5.0676105669        5.3481649406       -1.7482999077
 H        -6.8595689535        8.1462946770        2.3122506136
 H        -6.3171376926        6.8665069252        3.4732485070
 H        -7.3916647710        8.0777463992        4.0438245524
 H        -8.4764601962        5.6119100102        4.8669279066
 H        -9.9506167966        5.6670473677        4.1475014462
 H        -9.1131288098        7.0965362618        4.8848485500
 H       -13.0918399411       10.5034601865       -2.1714282403
 H       -11.2907116140        9.9030934936       -2.0848054113
 H       -11.8245521686       11.6134644486       -1.5553329616
 H       -14.5933129125       11.0514364683        0.2020031957
 H       -13.3517496049       12.1108637660       -0.1652537996
 H       -13.3269025704       11.3502667140        1.4410873764
 H       -13.8999303551        3.0423877316        0.1201243936
 H       -13.9792545053        1.9956934215        1.7227653556
 H       -12.5946561978        3.1298902914        1.2561423609
 H       -16.3115691834        4.4759208992        0.9585868734
 H       -16.1648690299        4.9132462393        2.5795256461
 H       -16.3064216125        3.1550414758        2.1939101334
 Na      -10.7497088211        4.4867612979        1.5179654012
