117

 C       -13.6198925488        4.1784949800        4.3955818061
 C       -13.2272686102        4.8811126283        3.1217072991
 O       -12.1834705420        5.3264530561        2.9274789204
 C       -14.3688365201        4.9432522896        1.8690598248
 C       -13.7620460921        5.8802769095        0.7804562583
 O       -12.7210024432        5.5730470760        0.1625517328
 C       -14.3122134925        7.2019899890        0.4694373812
 C       -13.2711442493        8.2808921963        0.6783170915
 C       -13.1797598495        9.1203079581       -0.6643333743
 O       -13.9731594728        8.9246894578       -1.6200214104
 C       -12.1347151100       10.2484466515       -0.9665179053
 C       -10.9650705246       10.1861817137        0.0294924331
 O       -10.9726769615       10.4970009415        1.2142014163
 C        -9.5460200404        9.6238317305       -0.4884800268
 C        -8.6809392986        9.1934060087        0.7315348257
 C        -9.0343409149        7.8704797656        1.4472909207
 O       -10.0217471451        7.2353163159        1.1911216354
 C        -8.0489209220        7.3212945449        2.5610277207
 C        -7.8143277707        5.9510154692        1.9165903234
 O        -8.6308731166        5.0313928998        2.0354830343
 C        -6.5347055173        5.6397285068        1.1019639656
 C        -6.7103699679        4.4380643345        0.1044897184
 C        -7.8281192595        4.7038002488       -0.8671126943
 O        -8.8941337812        5.0934800091       -0.6665688433
 C        -7.4900016806        4.3125009822       -2.4395405600
 C        -7.1933054199        2.6472057792       -2.2183339565
 O        -6.1382453754        2.1855502862       -2.5589452591
 C        -8.2638047998        1.7172661161       -1.6394296343
 C        -7.8296594564        0.2615879198       -1.4340957175
 C        -6.5126510210        0.0841226153       -0.5974477953
 O        -6.1791743108        0.9434657372        0.1686123216
 C        -5.7651524639       -1.1968137423       -0.8673169453
 C        -6.8118197211       -2.3347218923       -1.3785317886
 O        -6.7041943195       -2.8914964869       -2.4318185484
 C        -7.9611314485       -2.8844820698       -0.2960305333
 C        -9.1114895962       -3.6111689399       -1.0005182215
 C       -10.5334293791       -3.0009565491       -0.7916356667
 O       -10.6843454699       -1.9708987490       -0.1868574447
 C       -11.7388335356       -3.5695483910       -1.4858315016
 C       -12.2893367028       -4.6615745599       -0.3548056904
 O       -12.7651636139       -4.2789338021        0.6956710514
 C       -12.1272075850       -6.2095791337       -0.6251088033
 C       -12.7489752467       -2.4218976406       -1.5584629306
 C       -11.4230191102       -4.1336967023       -2.8786336609
 C        -4.9256681339       -0.8196966487       -2.1695537422
 C        -5.0611226270       -1.6604137095        0.4996492041
 C        -8.7224653001        4.6476854351       -3.3485839924
 C        -6.1842178441        4.7515037889       -3.0224268278
 C        -6.7746640356        8.1250937670        2.9684328634
 C        -9.0362116490        7.0839654323        3.7691739665
 C       -11.8258324105       10.1218317022       -2.5036356631
 C       -12.8793421096       11.6081353098       -0.5765647582
 C       -14.6003393852        3.5921889136        1.2281663586
 C       -15.8113364936        5.2390066617        2.4526334508
 H       -13.7602591069        3.0822842928        4.0849711947
 H       -14.4798601311        4.6065734284        4.9025002273
 H       -12.7493463479        4.2234361147        5.0575434648
 H       -15.2743891884        7.4405601497        0.9593139592
 H       -14.7021988186        7.1895948820       -0.5392715362
 H       -12.3057227724        7.9244352263        0.9437636790
 H       -13.6604856774        9.0383455116        1.4504754372
 H        -8.9319031829       10.2787948777       -1.0673576931
 H        -9.8377824872        8.6864745835       -0.9456340836
 H        -8.9161974723       10.0513897391        1.4174660194
 H        -7.5967876920        9.1519252152        0.4471734237
 H        -5.8497351183        5.3087449573        1.9544319671
 H        -6.1364528093        6.4750703438        0.6706881982
 H        -7.2341889675        3.6320246588        0.7033723436
 H        -5.6584449539        4.0837624858       -0.2451965336
 H        -9.1640221572        1.7461707512       -2.2861183064
 H        -8.6623469789        2.0330723336       -0.6570325005
 H        -7.6820823278       -0.2022024029       -2.4613779883
 H        -8.5016890283       -0.2419592605       -0.7525350329
 H        -8.1958760072       -2.0937731411        0.3751719590
 H        -7.4423532116       -3.5866282171        0.3990014726
 H        -9.1763069038       -4.6668101229       -0.8055263136
 H        -8.7531996835       -3.6699845946       -2.0831523607
 H       -12.3811477055       -6.8553377808        0.2224317272
 H       -11.0937354922       -6.4432373316       -0.9578821065
 H       -12.7172828812       -6.4929665038       -1.4106283850
 H       -12.5971923901       -1.7516842167       -0.7118045072
 H       -13.8340185505       -2.7836880879       -1.3459655825
 H       -12.7056701128       -1.7834874565       -2.5554290909
 H       -11.5662238821       -3.4303796549       -3.6647029350
 H       -12.1266678850       -4.9699272735       -3.1840432047
 H       -10.3743074299       -4.4423392369       -2.9302993899
 H        -4.4192611648        0.0675889062       -1.9200068525
 H        -5.6621049338       -0.6592089612       -2.9130845487
 H        -4.2939508291       -1.6126005302       -2.4800494395
 H        -4.5747058844       -0.7478715058        0.9462721790
 H        -4.2735694379       -2.3236485531        0.2523734966
 H        -5.6241673754       -2.3162453060        1.0771419450
 H        -8.9365445720        5.7207460026       -3.2869311790
 H        -9.5804956988        4.0307542493       -3.0147299005
 H        -8.2504523264        4.4399040240       -4.2536640557
 H        -5.5558446013        4.6822777535       -2.1530993425
 H        -6.1665281519        5.7971717424       -3.4748518975
 H        -5.8802588536        4.0785851286       -3.7146390298
 H        -6.5000748582        8.1952175511        4.0298194536
 H        -6.8947296981        9.1774025382        2.6975064236
 H        -5.8582937489        7.7977865918        2.4823806557
 H        -8.4797563756        6.5463878468        4.5469684138
 H        -9.9268897936        6.5226666072        3.5825292196
 H        -9.5455435703        7.9050032259        4.1914063350
 H       -12.6085426517       10.5370998240       -3.0648248185
 H       -11.9991593490        9.0364464728       -2.7481030858
 H       -10.8251224417       10.5738002764       -2.8001934918
 H       -13.8673649626       11.4182094060       -0.7884991214
 H       -12.4743117860       12.5615546418       -0.9520457607
 H       -12.8714247572       11.6674051068        0.5048551477
 H       -15.0740873329        3.7495265402        0.2074353939
 H       -15.2953893822        2.8828278355        1.7632399997
 H       -13.5929487713        3.1573637154        1.0759006882
 H       -15.8469785773        5.5380887505        3.5008700422
 H       -16.5333044119        4.4688395360        2.2676075875
 H       -16.2946227589        6.1037861848        1.9927703183
 Na      -10.6693762484        5.1998998985        0.8107109128
