117

 C       -13.6557901527        4.2738235755        4.3678376356
 C       -13.2926408701        4.8027166824        3.0074826142
 O       -12.0786350305        5.0804140257        2.7770309585
 C       -14.3864793080        4.9581064731        1.8960594120
 C       -13.7824740084        5.9584243538        0.7274146786
 O       -12.8053941131        5.5163672226        0.1326705938
 C       -14.4849122688        7.2184927725        0.3256386284
 C       -13.4437215079        8.4641195764        0.6291530883
 C       -13.1701517253        9.1404469297       -0.6995831309
 O       -13.9847776094        8.9335194984       -1.5433950036
 C       -12.0583747774       10.2603532035       -1.0072398929
 C       -10.8881531110       10.2294186735       -0.0064871949
 O       -11.0732091983       10.5142493665        1.2009724244
 C        -9.4615252486        9.6286203667       -0.4796310151
 C        -8.3771513657        9.2388672141        0.6203293332
 C        -8.8398737060        7.9856701089        1.3549675732
 O        -9.9564181733        7.4501441183        1.0446097986
 C        -7.9926549814        7.3395136825        2.4585614596
 C        -7.7164337035        5.8848627900        1.9734816248
 O        -8.5407061738        5.0148252057        2.0284393106
 C        -6.4581506231        5.7479760177        1.0847020802
 C        -6.7232077146        4.5669990683        0.1846942882
 C        -7.8001742962        4.6208864161       -0.8987444081
 O        -8.9402615725        5.0823943046       -0.8112685238
 C        -7.5278502112        4.0259092669       -2.4732488604
 C        -7.2550042033        2.5000230424       -2.2296818700
 O        -6.0542643184        2.2682876408       -2.3890316407
 C        -8.3086400956        1.6460639777       -1.6434398027
 C        -7.8821221548        0.2860225584       -1.3559539785
 C        -6.6368387065       -0.0037761265       -0.4533828773
 O        -6.2316261729        0.6816230361        0.4629685951
 C        -5.8200431453       -1.2712681279       -0.9022253638
 C        -6.8388212198       -2.4541202997       -1.2177306398
 O        -6.7886843191       -3.0451898047       -2.2147374161
 C        -7.9634048954       -2.8740883221       -0.2572319423
 C        -9.1364927461       -3.5033457959       -0.9617563393
 C       -10.5642403564       -2.7862877947       -0.8680746528
 O       -10.7324672131       -1.9700629611       -0.0033324756
 C       -11.8119933956       -3.6331930014       -1.4326737631
 C       -12.2416151293       -4.7211653653       -0.3359210030
 O       -12.6315976381       -4.2553457598        0.7050852321
 C       -12.2219151627       -6.1485606048       -0.6493054948
 C       -13.0763294052       -2.6645226749       -1.6001823353
 C       -11.3962984819       -4.2651236903       -2.8873169992
 C        -4.8275296263       -0.8760719972       -2.0330959709
 C        -5.0531575466       -1.6879651677        0.3207639165
 C        -8.7912138705        4.5659075937       -3.2589031542
 C        -6.2720531438        4.8520188271       -2.9125231798
 C        -6.7975960366        8.1608267904        2.8237541987
 C        -8.9339462477        7.2750668806        3.6973689767
 C       -11.7355777103       10.3129862248       -2.5445265646
 C       -12.7367394402       11.6579511699       -0.8413203006
 C       -14.4988918396        3.5059186772        1.1718494518
 C       -15.7046476861        5.3425533032        2.6052731491
 H       -13.7959846163        3.1957445072        4.2480765396
 H       -14.4703931439        4.7908637833        4.8281629989
 H       -12.7017210032        4.4576996456        5.1020093321
 H       -15.4099617513        7.2865993310        0.8805797023
 H       -14.8316871899        7.1696267154       -0.6328651225
 H       -12.4765571875        8.0681251591        0.9603829478
 H       -13.8397884932        9.1709294321        1.3376349423
 H        -9.0323349470       10.5135278946       -0.9133790829
 H        -9.5858098949        8.7991885195       -1.1009578038
 H        -8.2584458059       10.1228427052        1.2727189232
 H        -7.4120569575        8.9371008209        0.0756749655
 H        -5.4970851199        5.7822019456        1.5594569764
 H        -6.5909878617        6.6323469880        0.4566867173
 H        -7.0821939026        3.7154679265        0.8350343749
 H        -5.7612820845        4.3274121269       -0.3199781088
 H        -9.2397925744        1.6771743504       -2.1534658266
 H        -8.5780253725        2.0658163159       -0.5733937700
 H        -7.5302741576       -0.1110148964       -2.3180472077
 H        -8.6537268198       -0.3032428983       -0.8677273055
 H        -8.2334670392       -1.8934274877        0.3514407491
 H        -7.6426304385       -3.4802091285        0.4886376788
 H        -9.3885516867       -4.4557156823       -0.4986811790
 H        -8.8148314264       -3.8982207955       -1.9847036097
 H       -12.8090925188       -6.6358042887        0.0574672647
 H       -11.2663712773       -6.5873334929       -0.6215826279
 H       -12.6712381652       -6.3692002372       -1.6620825749
 H       -12.8443173707       -1.6127519667       -1.1705870285
 H       -13.9174403531       -2.9671269754       -0.8548898965
 H       -13.4224565255       -2.5006905853       -2.6472385509
 H       -10.9557406161       -3.4551197006       -3.5693013307
 H       -12.2645049296       -4.6763353870       -3.4511661313
 H       -10.5650565554       -4.9177574230       -2.8364411261
 H        -4.1812243548       -0.2047754732       -1.4656856734
 H        -5.3555004337       -0.3570646552       -2.8044997770
 H        -4.2772369935       -1.7291841507       -2.3434569061
 H        -4.5078669162       -0.8415166313        0.6765425250
 H        -4.2666520967       -2.3828362103        0.0168826963
 H        -5.5984035718       -2.2050589619        1.0025833623
 H        -9.0380165635        5.5502654804       -2.7985971883
 H        -9.5811714279        3.8955252443       -3.1093019747
 H        -8.3946472734        4.7328356800       -4.2189649176
 H        -5.8508040429        5.2006882502       -1.9665805066
 H        -6.5385900865        5.6788417307       -3.5450337784
 H        -5.5735375722        4.2146766807       -3.4688947827
 H        -6.3591681712        7.9151519645        3.8846628461
 H        -6.9682450285        9.1624520671        2.8265047230
 H        -5.9421276890        7.9777257320        2.1910354179
 H        -8.6029811642        6.5964687937        4.4117919734
 H       -10.0172096492        7.0176811320        3.5320059425
 H        -9.1445399447        8.2127175775        4.2811810097
 H       -12.6028607776       10.7327579415       -3.0895100871
 H       -11.7793778588        9.2665000174       -2.9221259845
 H       -10.8045474288       10.8939413291       -2.7490675910
 H       -13.6004197382       11.5562501422       -1.5983763858
 H       -12.0138514908       12.4490078242       -0.9674959504
 H       -13.2349520531       11.8846201563        0.1608468152
 H       -15.3609025015        3.7655130046        0.5214874728
 H       -14.7359429841        2.5465557220        1.6126111690
 H       -13.5777479223        3.4900756854        0.4231037333
 H       -15.4988450449        5.8130149263        3.6012313998
 H       -16.2894115934        4.4957542716        2.7957221476
 H       -16.4452768007        6.0757152571        2.2221202493
 Na      -10.7577376972        5.2037467451        0.8824394260
