117

 C       -13.6346722281        4.3345277025        4.3660106750
 C       -13.2118139695        4.6553525100        2.9185055754
 O       -11.9712131643        4.7741457394        2.6517953598
 C       -14.3488336439        4.9364681154        1.8585853842
 C       -13.9120798493        5.9233933805        0.7659523773
 O       -13.0248150243        5.5702113794        0.0724150161
 C       -14.4903221450        7.3255213972        0.4920982859
 C       -13.5242323803        8.5632973126        0.6137712464
 C       -13.2957108452        9.2964395628       -0.8947140279
 O       -13.9840982381        9.0286574764       -1.8074311755
 C       -12.1063043024       10.3134641424       -1.0786609302
 C       -10.7892448797       10.1287886243        0.0080081037
 O       -11.1095922735       10.4868833528        1.1193292697
 C        -9.3795804049        9.7577757368       -0.5932992308
 C        -8.2606123694        9.3339387050        0.4533483582
 C        -8.8311853653        8.1076376259        1.1743584271
 O        -9.9209166887        7.7179467629        0.8226245433
 C        -7.9975941951        7.4248316241        2.4802692493
 C        -7.7568821020        5.9723689857        1.8628009613
 O        -8.4074281800        5.0253476913        2.1746112631
 C        -6.5405535085        5.7471745099        0.8377836098
 C        -6.7024015825        4.4332189150        0.0591395304
 C        -7.8645294704        4.5815152681       -0.9531140211
 O        -9.0042259775        5.0925411611       -0.5647115395
 C        -7.5096858501        4.2098506773       -2.3322753604
 C        -7.1389235858        2.5896362620       -2.1561859770
 O        -6.0698252284        2.0668590297       -2.2084446055
 C        -8.2852020805        1.7647159124       -1.6286733913
 C        -7.9646397949        0.2374230454       -1.3334080733
 C        -6.7176256524       -0.0953317960       -0.3773218019
 O        -6.5246198156        0.5082039212        0.6652753803
 C        -5.8100658737       -1.3992977525       -0.7379659874
 C        -6.9155252976       -2.5179201252       -1.1928952199
 O        -6.7399959477       -3.2378540493       -2.2175875772
 C        -8.0924609838       -2.7388240927       -0.1741994889
 C        -9.2166256713       -3.4940335781       -0.8118497011
 C       -10.5996226438       -2.8807732069       -0.6128271339
 O       -10.7370095259       -1.8461093702        0.0242247248
 C       -11.8480907919       -3.5316180040       -1.3951043073
 C       -12.2140768295       -4.6814426635       -0.3694610759
 O       -12.4401690363       -4.2515062240        0.7297147393
 C       -12.2893226579       -6.1339595202       -0.7486571487
 C       -13.2479358675       -2.9504382487       -1.7080478484
 C       -11.4792919630       -4.3013030308       -2.7578648833
 C        -4.8989087548       -1.0311388309       -1.8996713825
 C        -4.8852869393       -1.8888866353        0.3636977337
 C        -8.7983582738        4.2591938235       -3.3151660490
 C        -6.3100009300        5.0468954804       -2.9312461248
 C        -6.7296596192        8.1889723108        2.7413555654
 C        -8.8799911550        7.4291550786        3.7522320325
 C       -11.4663216381       10.2568996995       -2.4686235763
 C       -12.6792885175       11.7920526816       -0.8906382622
 C       -14.4437071879        3.5312505739        1.1857081919
 C       -15.5605256157        5.4807581281        2.5305523934
 H       -14.0071500202        3.3257609106        4.4394668706
 H       -14.3827467416        5.1187166292        4.7431984665
 H       -12.8463456462        4.4763140292        4.9801556247
 H       -15.4328297876        7.5466533510        0.9247124912
 H       -14.7555975620        7.2728920047       -0.5644701806
 H       -12.5158403967        8.3337118515        1.0511635300
 H       -14.0139898829        9.2826628976        1.1751220492
 H        -9.1198561085       10.7297161654       -1.0210368751
 H        -9.3804454131        8.8988508911       -1.2545897518
 H        -7.9773694866       10.0739062780        1.1915220225
 H        -7.4211943973        8.9863750521       -0.1486586155
 H        -5.7087575995        5.6841425283        1.4694370028
 H        -6.4095454580        6.6943748385        0.1480556792
 H        -6.7534502668        3.6498724973        0.7895037857
 H        -5.8669378100        4.3804351281       -0.5314982180
 H        -9.1897560305        1.7590138033       -2.2532782110
 H        -8.6512072336        2.1691733778       -0.6760467563
 H        -7.7282565906       -0.2070779502       -2.2573958278
 H        -8.7983651608       -0.2664363952       -0.7981144097
 H        -8.3677411642       -1.8230269092        0.4017943289
 H        -7.6430553530       -3.3700732294        0.6237109207
 H        -9.1045133094       -4.6171003020       -0.7984348564
 H        -9.2145918130       -3.3487354103       -1.8880909384
 H       -13.0906459103       -6.5127430707       -0.0962284374
 H       -11.4452322329       -6.6824663709       -0.4013849510
 H       -12.5732513378       -6.4696221038       -1.7759792090
 H       -13.2546853948       -1.8104795263       -1.8961524712
 H       -13.7607849099       -3.0032626259       -0.8179497543
 H       -13.6908288680       -3.3610659567       -2.5547902828
 H       -10.5519973292       -3.9882183113       -3.3725195642
 H       -12.3109847580       -4.3410557211       -3.3895697759
 H       -11.0703915542       -5.3020277936       -2.5446481167
 H        -4.0155362396       -0.6028303026       -1.4245391135
 H        -5.3817204400       -0.3588000873       -2.6695103957
 H        -4.5877110810       -2.0315985389       -2.2535929318
 H        -4.1676099526       -1.1578954739        0.5233602094
 H        -4.2303462003       -2.7104598151        0.0449374582
 H        -5.4112635542       -2.1983338966        1.3875414828
 H        -9.2981669135        5.1692557485       -3.1535308685
 H        -9.3763768395        3.4657365304       -2.9145397748
 H        -8.4310429299        4.0873967118       -4.3540177834
 H        -5.7612341051        5.7636217296       -2.2931089706
 H        -6.7095848838        5.4525412438       -3.8003147129
 H        -5.7174154248        4.1601653888       -3.3984608255
 H        -6.0531136505        7.6202615417        3.2696357204
 H        -6.8138000915        9.2006084713        3.2848126031
 H        -6.1802662239        8.3632755713        1.8088065711
 H        -8.6547231705        6.7586282384        4.5963978694
 H        -9.9579298333        7.3086382807        3.6151020930
 H        -8.9270180141        8.4185695711        4.2843755652
 H       -12.2371175647       10.3334833042       -3.3135580186
 H       -10.9765680107        9.3119700038       -2.6052600617
 H       -10.7730331269       11.0793648755       -2.5131205359
 H       -13.4034289014       11.9886939596       -1.7598703641
 H       -11.7918201760       12.4709244350       -0.7361439560
 H       -13.2302957344       11.9792879523        0.0744910987
 H       -15.5148793152        3.3653811955        1.0368632756
 H       -14.1989785082        2.6433431246        1.8367421106
 H       -13.8686263416        3.4812837363        0.3042363113
 H       -15.3981597976        6.4888129525        2.9044819552
 H       -15.9479376832        4.8512870388        3.4059862875
 H       -16.4442758510        5.6132254796        1.9206319219
 Na      -10.6962755699        5.2489369987        0.9959654243
