117

 C       -13.5243325123        4.3952345807        4.3800241967
 C       -13.0898724831        4.7302650176        2.9220546266
 O       -12.0019588756        4.4142654811        2.6278849431
 C       -14.3280677988        4.9878172170        1.9294417869
 C       -13.7317146701        6.0167324765        0.6886612137
 O       -12.9289068949        5.6746276957       -0.1521881927
 C       -14.5095888418        7.5398240193        0.5153370859
 C       -13.5594192028        8.6675462628        0.3315093866
 C       -13.2765337715        9.3045066275       -0.9659738425
 O       -13.9610115498        9.1122145365       -1.9812413761
 C       -11.9031068564       10.3824508684       -1.1246462108
 C       -10.8318454037       10.2227903170       -0.0247367357
 O       -10.9245716691       10.3250953329        1.1423523365
 C        -9.4194887352       10.0465914740       -0.6751843779
 C        -8.4256311169        9.4905836533        0.3841322683
 C        -8.9202521683        8.2772184226        1.1535862477
 O        -9.8625302765        7.6791882401        0.8093344471
 C        -8.0416894325        7.5814542247        2.2200963623
 C        -7.7488051523        6.0445241383        1.8401229062
 O        -8.3742413292        5.1108030736        2.3565840988
 C        -6.5943469729        5.8265061985        0.8570009069
 C        -6.7194129028        4.4596066287        0.0918073776
 C        -7.9156878057        4.6827995060       -1.0212754154
 O        -8.9785660163        4.9534123973       -0.4813750692
 C        -7.5696319723        4.0793274634       -2.3478695717
 C        -7.0891826179        2.5913711193       -1.9731503547
 O        -5.9776725535        2.1577966004       -2.1840519271
 C        -8.2790089779        1.7213614737       -1.4424460226
 C        -7.9389273733        0.1361583504       -1.3089666733
 C        -6.8372088292       -0.1708372584       -0.2758997473
 O        -6.8381299428        0.3551676671        0.7901804368
 C        -5.8435483644       -1.4873286546       -0.6437490545
 C        -6.8596121882       -2.6288270427       -0.9948417276
 O        -6.7283252342       -3.2377087572       -2.0623532577
 C        -8.1245400630       -2.7769838068       -0.1506417087
 C        -9.3212759634       -3.4973007027       -0.9097144841
 C       -10.7172362057       -2.7530927300       -0.7152354386
 O       -10.8880764071       -1.7717059460       -0.0286850446
 C       -11.9353051220       -3.6912368713       -1.3660795371
 C       -12.2539409626       -4.7784205691       -0.2418717818
 O       -12.2825881406       -4.3792586641        0.9168110673
 C       -12.4572812503       -6.2033026557       -0.6865239000
 C       -13.2231115764       -2.9446637328       -1.6844370902
 C       -11.2627126191       -4.2448545764       -2.7248182801
 C        -5.0425659029       -1.1584417098       -2.0134452268
 C        -5.0044622349       -2.0722498261        0.5117254301
 C        -8.7450717279        4.0140105138       -3.4047821919
 C        -6.4361486962        5.0391079094       -2.9686954179
 C        -6.6316357846        8.2037553080        2.5573385174
 C        -8.8212952468        7.5031032307        3.5208860446
 C       -11.3601685565       10.1121259756       -2.5591477123
 C       -12.5543171383       11.7571217484       -0.8504374693
 C       -14.5893047494        3.5465420776        1.2481620149
 C       -15.6371291283        5.5038647451        2.5323769676
 H       -14.2319796216        3.5941227078        4.2112333148
 H       -13.9848937738        5.1807567218        4.9268557433
 H       -12.6662267367        4.0939808915        4.9404552585
 H       -15.1600310863        7.8462147918        1.3793000624
 H       -15.2593916315        7.4190205327       -0.3766856161
 H       -12.5817082018        8.3699018112        0.6891404133
 H       -13.8984495657        9.5605178484        0.9226194759
 H        -9.0759951346       11.0003630336       -1.1159986591
 H        -9.3849448127        9.1339719618       -1.3330220549
 H        -8.0968673788       10.1577837561        1.1630855392
 H        -7.6176242546        9.1642484850       -0.1775070520
 H        -5.6821743214        5.8656251286        1.5480130431
 H        -6.5993800445        6.7588995476        0.2573662055
 H        -6.9855808167        3.7984357022        0.8492279238
 H        -5.7570873594        4.2268897138       -0.3144502199
 H        -9.0013788209        1.6804474639       -2.3136374905
 H        -8.8638570646        2.0515079230       -0.6905104856
 H        -7.7264161722       -0.2575949233       -2.3064552872
 H        -8.7673714734       -0.4218278661       -0.8553674765
 H        -8.4243901102       -1.8825852020        0.2142660857
 H        -7.8884968147       -3.3495402277        0.8658976705
 H        -9.5292806909       -4.4659079780       -0.4056552980
 H        -9.1446299769       -3.8164840992       -1.8965227976
 H       -13.2299824857       -6.7894994257       -0.0762559689
 H       -11.4850158779       -6.7856828186       -0.4701199810
 H       -12.7219377303       -6.2988543082       -1.6830932816
 H       -13.0587522522       -2.3440063163       -2.4754367611
 H       -13.3151679117       -2.3099546387       -0.8654338647
 H       -14.0686057562       -3.4969514486       -2.0477053369
 H       -10.5267128132       -3.5885178097       -3.0562746933
 H       -12.0496005263       -4.3392709444       -3.4849335406
 H       -10.6045166314       -5.1397535768       -2.7043905385
 H        -4.0819550621       -0.7167592732       -1.7253294089
 H        -5.6343854143       -0.5086613571       -2.7220524964
 H        -4.8233763595       -2.2177448924       -2.3582587324
 H        -4.0095552691       -1.4110013695        0.6751776248
 H        -4.4912456614       -3.0395860146        0.2870528828
 H        -5.6220583281       -2.1168307591        1.4651690088
 H        -8.9450647366        5.0257078696       -3.6374127842
 H        -9.5875146663        3.5607098165       -2.7951920595
 H        -8.3801937214        3.3748364530       -4.2264468898
 H        -6.2011902909        5.8742943889       -2.2856366649
 H        -6.8345158608        5.4078810112       -3.9750721012
 H        -5.6150596992        4.4075307109       -3.1739263692
 H        -5.9605012410        7.3865210375        2.7364296007
 H        -6.6772926463        8.8419787142        3.4900173306
 H        -6.0909535569        8.8184078580        1.8173879389
 H        -8.3553149837        6.8506274982        4.3385983116
 H        -9.8390066870        7.1713428038        3.5220030086
 H        -8.8708764431        8.4272831333        4.0668979205
 H       -12.2400693966       10.0490165991       -3.1395274027
 H       -10.6952971095        9.2608654186       -2.6719746709
 H       -10.8327453466       10.9962289214       -2.9250623516
 H       -13.2689129661       12.0250048286       -1.5462083095
 H       -11.7343853346       12.4915702210       -0.5644455281
 H       -12.9946698926       11.7053012819        0.1332094952
 H       -15.5494806969        3.1302174213        1.4270665780
 H       -14.0404802424        2.9589179381        1.9660905486
 H       -14.1628591662        3.3621378398        0.3415844675
 H       -15.9283089010        6.5273598397        2.4756864198
 H       -15.9261762741        5.1489899926        3.5567998681
 H       -16.4319260133        5.0899318635        1.9245388760
 Na      -10.5619916129        5.4237266066        1.0595902796
