117

 C       -13.4360554930        4.5868348012        4.1750629974
 C       -13.0109205167        4.8178506165        2.7115601728
 O       -11.9756046293        4.3364856862        2.2912557874
 C       -13.9779580858        5.4106411751        1.6819770190
 C       -13.3004963590        6.5184290880        0.7503190006
 O       -12.2049714028        6.5225723842        0.4125667945
 C       -14.1808492929        7.8590697424        0.4138695607
 C       -13.2946108820        9.1787149649        0.3305756172
 C       -12.9834619959        9.3790701530       -1.2281223760
 O       -13.6508570178        8.8728642849       -2.1128808823
 C       -11.9466673708       10.5600212821       -1.5955110689
 C       -10.8006949606       10.6730343518       -0.5071496013
 O       -11.0255006407       11.1391178651        0.5341302871
 C        -9.3425055495       10.4289804332       -1.0515674745
 C        -8.2611331982       10.1616530591        0.0905004033
 C        -8.3793900088        8.6659738754        0.6670532125
 O        -9.0398199277        7.8983945077        0.0244976878
 C        -7.7598670879        8.3145200404        2.0373323102
 C        -7.6270605111        6.6341376783        1.9224673350
 O        -8.2477311769        5.8389956074        2.5715685929
 C        -6.7360958898        6.0120331343        0.6720640859
 C        -7.0718512890        4.6023825379        0.3003349557
 C        -8.0360232852        4.4817727574       -0.9202900876
 O        -9.2848677271        4.8718751319       -0.8728372755
 C        -7.6359036020        3.6785253240       -2.3029464100
 C        -7.2691964616        2.0167503643       -1.9141637932
 O        -6.1220848947        1.7720494979       -2.0779330353
 C        -8.3803150469        1.0654167231       -1.4810873400
 C        -7.9725918539       -0.4017456321       -1.3219367685
 C        -7.1839319249       -0.6990674697        0.0795563292
 O        -7.2087719844        0.0503293056        0.9827724177
 C        -6.3062253870       -1.9587098079        0.1089601773
 C        -7.2750054172       -3.1325547671       -0.3822510072
 O        -6.8741649978       -3.8072119168       -1.2630444255
 C        -8.5466526090       -3.5324354299        0.5523887788
 C        -9.5210426650       -4.4542589050       -0.2383280786
 C       -10.5604227875       -3.5501414084       -0.8915046455
 O       -10.2586214795       -2.4723384722       -1.3801391069
 C       -12.0747844799       -4.1501236620       -1.0104126477
 C       -12.6881245344       -5.2890620342        0.0270982890
 O       -12.1524699312       -5.3121091702        1.1195626620
 C       -13.9145334320       -6.1169824033       -0.5348456797
 C       -12.9713325535       -2.9068706325       -0.7988692777
 C       -12.1519686806       -4.8055580040       -2.4568000025
 C        -5.0549356753       -1.6191789347       -0.8270677403
 C        -5.7672302679       -2.4006118722        1.4633827115
 C        -8.7291222391        3.8350300648       -3.3868030635
 C        -6.3588887961        4.4016560474       -2.7960353660
 C        -6.3087334900        8.9423566381        2.2366846648
 C        -8.6888746864        8.8530781411        3.0985117444
 C       -11.3557537376       10.6723451595       -2.9691993153
 C       -12.7836967333       11.7948651530       -1.3921645647
 C       -14.2830484675        4.0873308456        0.6982022912
 C       -15.2879033652        5.8726428321        2.3251360467
 H       -13.9542625727        3.5990184389        4.1933345557
 H       -14.0988911889        5.2905845084        4.5561485606
 H       -12.3810151326        4.5749115628        4.7636766279
 H       -15.0605130262        8.1493667769        0.8580588860
 H       -14.3505469041        7.7118962650       -0.6360042870
 H       -12.3272170461        9.1228618247        0.9099194773
 H       -13.7560143358       10.1020654354        0.6378942668
 H        -9.1357249454       11.2641719123       -1.6749806218
 H        -9.2228100638        9.6268364441       -1.7756762513
 H        -8.3554094372       10.7688536443        1.0458859027
 H        -7.2486898737       10.3985712974       -0.3345260755
 H        -5.7170934305        6.0790836243        0.9201391183
 H        -6.7810460608        6.6848481604       -0.2127399879
 H        -7.5886785578        4.1115165084        1.2145065207
 H        -6.1432968767        3.9878525659        0.2422305881
 H        -9.2890322032        1.0011441909       -2.2010367958
 H        -8.8095078192        1.3654388437       -0.4872683084
 H        -7.3520340603       -0.6124937952       -2.1967609606
 H        -8.7518076177       -1.1841998902       -1.5287010324
 H        -8.9958308082       -2.6815817386        0.8430463522
 H        -8.0884703264       -4.1331176096        1.4417903635
 H        -9.9561269111       -5.3014413982        0.4220185799
 H        -8.8038181382       -4.8763030413       -0.9427762124
 H       -14.1077102064       -7.0402456152        0.0540798650
 H       -13.5366159618       -6.5121525654       -1.4822802656
 H       -14.7289525575       -5.5323201018       -0.6923275001
 H       -12.3659805489       -2.0346487226       -1.0352935600
 H       -13.3932748724       -2.8592822057        0.2979125713
 H       -13.9697582937       -2.9569502180       -1.4650861649
 H       -11.1694141094       -4.8209304153       -2.8232383334
 H       -12.5971214403       -4.0812420969       -3.1467514457
 H       -12.6342241493       -5.7897682869       -2.6122911035
 H        -4.6595974619       -0.7506775462       -0.3701951655
 H        -5.3861922755       -1.4525503776       -1.8528726053
 H        -4.3969909340       -2.4789199123       -0.6667403261
 H        -4.8955115179       -1.8430169684        1.8143374864
 H        -5.4998919326       -3.4400284971        1.4451925770
 H        -6.3632220422       -2.1958225313        2.2052275536
 H        -9.0430635902        4.8882216274       -3.4532120997
 H        -9.6287683319        3.1748523088       -3.1960516977
 H        -8.2656959079        3.4905694857       -4.3042715248
 H        -6.5818984070        4.4872046822       -3.8362964138
 H        -5.4619163586        3.7204244364       -2.6880780662
 H        -6.1676657263        5.3200001651       -2.3506087867
 H        -5.8083796847        8.3580047411        3.1194307506
 H        -6.4901437348        9.9168754176        2.5852912445
 H        -5.8045400823        8.9953597195        1.3260385915
 H        -8.8291013036        8.2324363207        4.0674305284
 H        -9.7128065679        8.9950180269        2.8419849484
 H        -8.3032762886        9.7659675054        3.5285598747
 H       -12.0651552068       10.5421030895       -3.7928197229
 H       -10.4557159016       10.0535092069       -3.2625377001
 H       -11.0629975824       11.7629847141       -2.9981380599
 H       -13.5641168444       11.9650362435       -2.0555297918
 H       -12.2039406716       12.6921700002       -1.5168875696
 H       -13.2188263096       11.6823628893       -0.4356718340
 H       -13.6983793429        4.4012572723       -0.2070297430
 H       -15.3708967040        4.0156677694        0.4749995335
 H       -14.0734703303        3.0692021544        1.0671246299
 H       -15.2673738207        6.4853765137        3.1926982729
 H       -15.7442271492        4.8927241503        2.5832730528
 H       -15.9431860397        6.4138639625        1.7032462058
 Na      -10.3024308058        5.6162873676        1.1169200487
