117

 C       -13.3462407818        4.4518558818        4.0032785520
 C       -12.8575797206        4.9543807093        2.6764309352
 O       -11.6943119928        4.7145645870        2.4044784213
 C       -13.9241687152        5.4305168156        1.5987561849
 C       -13.3890636383        6.7907701199        0.8470976561
 O       -12.1412272251        6.7964239567        0.5278178677
 C       -14.1795663862        8.0175849947        0.4939462740
 C       -13.2736367592        9.2987444199        0.2035220318
 C       -12.8316230346        9.5021374106       -1.3189096672
 O       -13.1347635863        8.7779556775       -2.2490243865
 C       -11.9928771900       10.9195012042       -1.6884513556
 C       -10.7249113138       11.1494065982       -0.7375828193
 O       -10.8698391711       11.4158253233        0.4878986791
 C        -9.2565165807       10.5548447309       -1.1380820900
 C        -8.4749445819       10.1615875905        0.0745564608
 C        -8.4746359771        8.7242035206        0.3913254087
 O        -9.3019826752        7.8781827299        0.0100984095
 C        -7.6604433557        8.3197408078        1.6199713599
 C        -7.6940514138        6.7250129115        1.6919994574
 O        -8.1913610844        6.2055478766        2.6854539959
 C        -6.7931382624        6.0520993128        0.6983050620
 C        -7.1512324649        4.5123323799        0.3957102941
 C        -8.1824037181        4.3089175776       -0.7959062031
 O        -9.2913670872        4.6342555742       -0.7737347987
 C        -7.5344295812        3.5611839813       -2.0277414868
 C        -7.3121823933        2.0049822997       -1.8668815678
 O        -6.1721048367        1.5697235752       -2.0389061152
 C        -8.4810006822        1.0669098849       -1.5446240783
 C        -7.9299251014       -0.3938803235       -1.2597020571
 C        -7.2474448086       -0.5926270700        0.0577044243
 O        -7.3459258877        0.2343712749        0.9981527557
 C        -6.4112815679       -2.0163922965        0.3331683169
 C        -7.3242896053       -3.3851553051       -0.3223253505
 O        -6.8647594394       -3.9436591395       -1.3338602334
 C        -8.4260842595       -3.8662775087        0.6724721196
 C        -9.5215678570       -4.7382205618        0.0788052172
 C       -10.5810826988       -3.9547730105       -0.8225982294
 O       -10.1985200098       -3.0004283913       -1.4808528336
 C       -12.2346211499       -4.3598314454       -1.0608549119
 C       -12.8206526238       -5.3135723641        0.0897000026
 O       -12.0974270075       -5.5309074041        1.0593208129
 C       -14.2341353984       -5.9971960021       -0.2006185568
 C       -12.9858562904       -2.9891248150       -0.7903735962
 C       -12.3175261107       -4.6521532426       -2.5618928047
 C        -5.1428548936       -2.0482506532       -0.5626436170
 C        -6.1275855701       -2.1797465501        1.9260118865
 C        -8.5546244260        3.5719067633       -3.2645811061
 C        -6.1921316225        4.1594237085       -2.5064381387
 C        -6.2502763880        8.9421959001        1.7534146631
 C        -8.5634875794        8.7027829056        2.9325568524
 C       -11.6299025925       10.5880277908       -3.1585400523
 C       -12.9041838179       12.1474060029       -1.4469330385
 C       -14.0292397291        4.3915797636        0.4222558055
 C       -15.2786165115        5.7729608700        2.2228710546
 H       -14.0588975815        3.6985970155        3.7853359107
 H       -13.8880812933        5.3017497426        4.5254761512
 H       -12.5405459478        4.1089037396        4.5235897269
 H       -14.8448200147        8.3456692863        1.3240993014
 H       -14.7603402051        7.8925790210       -0.4569428876
 H       -12.4392677336        9.4120327225        0.8895220568
 H       -13.8139191540       10.2323840510        0.4322533487
 H        -8.6796645590       11.2146875924       -1.8529004789
 H        -9.4495463764        9.7494136966       -1.8647036804
 H        -8.8731986460       10.6436067665        0.9886911316
 H        -7.4477673464       10.5015085203        0.0762444955
 H        -5.7450405068        6.2412599794        1.1356524548
 H        -6.7878325371        6.6916875520       -0.1995656743
 H        -7.3920630406        4.0116370101        1.2825873793
 H        -6.2077418603        4.1031002198        0.1215398392
 H        -9.1583542391        0.9961110527       -2.3213891328
 H        -9.0065856729        1.3564284571       -0.6429908085
 H        -7.2383918858       -0.6313892008       -2.0813363757
 H        -8.5432095762       -1.2600456702       -1.3404592214
 H        -8.9363405014       -2.8672068751        1.0856660045
 H        -7.9127763959       -4.3681068313        1.4126564873
 H        -9.9891016429       -5.1788070272        0.8939655675
 H        -9.0911162117       -5.5418386388       -0.5716247101
 H       -14.7765986185       -5.9358048349        0.7477123606
 H       -14.2112713135       -7.0010654348       -0.5251362483
 H       -14.7995055804       -5.3348970272       -0.9288467090
 H       -13.5567204546       -2.7723212000       -1.7363383232
 H       -12.2531568837       -2.1847667886       -0.7377728923
 H       -13.6519709976       -2.9827157215        0.0212223435
 H       -11.4502561529       -5.3251866521       -2.9181591274
 H       -12.1177420694       -3.7960846019       -3.2010853365
 H       -13.2958805074       -5.0646384716       -2.6979041550
 H        -4.3329555105       -1.6047016540        0.0062284477
 H        -5.3709175996       -1.6660320195       -1.5421054883
 H        -4.9869070855       -3.0845499130       -0.7599804834
 H        -5.3511679689       -1.4546743820        2.2591440502
 H        -5.7102041934       -3.2154511767        2.1141739057
 H        -6.9375546185       -2.0506298336        2.8260964263
 H        -8.2933436197        4.4075431294       -3.9169804353
 H        -9.5333064042        3.8352018855       -2.8807891623
 H        -8.5293723531        2.5718542691       -3.7844666462
 H        -5.7270318938        3.5075990857       -3.2669525492
 H        -5.5697416330        4.3555746529       -1.6638430256
 H        -6.4586996121        5.1956410176       -3.0743227935
 H        -5.8329249307        8.4728858886        2.5155862089
 H        -6.2683740987       10.0766077278        1.9978405755
 H        -5.8363253237        8.7419653310        0.7439127162
 H        -8.1671045204        8.2984950889        3.8162681420
 H        -9.5710544833        8.2315529969        2.9016274569
 H        -8.7960145144        9.7623183801        3.2304664278
 H       -12.2885612735       11.0012082427       -3.9576193066
 H       -11.7186389408        9.5417278472       -3.3538318362
 H       -10.6463424261       10.8823683291       -3.4166547137
 H       -13.9124990892       12.2084787380       -1.9348838055
 H       -12.4065723747       12.9173373559       -2.1306422550
 H       -13.0973827795       12.4758039275       -0.3752327604
 H       -13.2594310242        3.6388459365        0.4945341983
 H       -14.2354696928        4.7685700106       -0.6041218765
 H       -15.0053015314        4.0024238266        0.6956486661
 H       -15.2471821107        6.8040898131        2.6689200373
 H       -15.6573820486        5.0120502311        2.9259107604
 H       -16.1232945228        5.7939903174        1.4701839635
 Na      -10.1448474536        5.7275352458        1.1428994181
