117

 C       -13.4577686523        4.4410135610        3.7339296387
 C       -12.7596273312        5.2195187953        2.5674823629
 O       -11.5448499815        5.2669272336        2.4863516433
 C       -13.5321740897        5.8617464644        1.4223193324
 C       -13.1031498116        7.2367704387        0.9140760956
 O       -11.8650880918        7.3819656031        0.7143020056
 C       -14.0031569605        8.3580722761        0.5624383194
 C       -13.3334037935        9.6587795017        0.0751154853
 C       -12.6692361164        9.5662692070       -1.3132475661
 O       -12.7540589292        8.4705924494       -1.8592418718
 C       -12.0956170093       10.9997983127       -1.7862091499
 C       -10.8327653047       11.1108582729       -0.8883781355
 O       -10.9661067063       11.6477128901        0.2414428864
 C        -9.5524745894       10.3701088527       -1.3892009526
 C        -8.4900436958       10.1664953153       -0.3424463545
 C        -8.6473703554        8.8062350561        0.3310468546
 O        -9.4958990241        7.9821285251        0.0011237803
 C        -7.6211860697        8.2283399352        1.4783240057
 C        -7.6610293082        6.7217781750        1.4909743491
 O        -8.3415516123        6.2595600074        2.4392158750
 C        -6.7639929329        5.8496587172        0.5779150290
 C        -7.0388313628        4.3403354721        0.5397496006
 C        -7.9784062217        3.9536092595       -0.5761193099
 O        -9.1869875408        4.1557414152       -0.4733979896
 C        -7.4337203548        3.3306679669       -1.8964110224
 C        -7.1843461281        1.8291215373       -1.6975503268
 O        -6.0601889414        1.3394671998       -1.7000199007
 C        -8.4471870029        0.9589457909       -1.4941564651
 C        -8.1459208078       -0.5920801849       -1.2527455860
 C        -7.5619707747       -0.8516412864        0.1407935133
 O        -7.3959734531        0.1830260859        0.8303860142
 C        -6.8367007323       -2.2647599924        0.6043842513
 C        -7.5446613206       -3.4521910974        0.0661204992
 O        -7.4744818314       -3.8955113210       -1.1030795366
 C        -8.7141195336       -3.9769453614        0.8149324471
 C        -9.5870410197       -4.9117253474        0.0241130324
 C       -10.5486978588       -4.1431566053       -0.8323397437
 O       -10.1021543375       -3.2066652823       -1.4738485489
 C       -12.0641039695       -4.3760096215       -0.7798045026
 C       -12.7310187907       -5.4134786344        0.2285792720
 O       -12.0836443507       -5.9877506384        1.0773596758
 C       -14.1993234007       -5.5896206527       -0.1708599139
 C       -12.6985651127       -3.0040966321       -0.7198815769
 C       -12.4333347686       -4.9873018458       -2.2931123217
 C        -5.3592822028       -2.1482594120       -0.0460953671
 C        -6.5964095044       -2.3572550671        2.1423965947
 C        -8.3499891130        3.5158529065       -3.0735934350
 C        -6.1191973237        4.1269722797       -2.2786934440
 C        -6.1957497002        8.8068180467        1.1201331929
 C        -8.0379778253        8.8396842472        2.8272622927
 C       -11.8074892705       11.0248495955       -3.2815655687
 C       -13.1543541148       12.0674051071       -1.5255888055
 C       -13.6214452648        4.8387785977        0.2491359764
 C       -15.2030270980        5.9256071149        1.7219128264
 H       -14.1623628217        3.7673199982        3.1943636331
 H       -13.9912949076        5.1823976807        4.4433419203
 H       -12.7873891558        3.8296762352        4.1936529709
 H       -14.5329904116        8.6445477884        1.4609946816
 H       -14.6176088399        8.0595777200       -0.1742965789
 H       -12.6161422791        9.8904375588        0.7932820535
 H       -13.9659158337       10.5722052547        0.1928571600
 H        -9.1880859589       10.8573476132       -2.2587506876
 H        -9.9301805986        9.4733919201       -1.8589190869
 H        -8.4612470718       11.0450787206        0.3873918895
 H        -7.4493053843       10.1720096962       -0.7129524706
 H        -5.6826636374        6.1377687258        0.9451279420
 H        -6.9210449780        6.2653371306       -0.3727114296
 H        -7.4312156752        4.0096497453        1.5119585902
 H        -6.0311397818        3.7822822564        0.4028742249
 H        -9.2164676897        0.9689238588       -2.3505373465
 H        -8.9605956483        1.1549875311       -0.5251628293
 H        -7.3315219303       -0.9539765278       -1.9433588436
 H        -8.9585573023       -1.2298302935       -1.6065196719
 H        -9.2917637819       -3.0166029726        1.1178937497
 H        -8.4711475099       -4.4743134934        1.7525512361
 H       -10.0682740098       -5.5077307901        0.7973403237
 H        -8.9741125664       -5.5741600895       -0.6606438611
 H       -14.6061954316       -4.6439434904       -0.3443618708
 H       -14.7559499519       -6.0762780706        0.5623804868
 H       -14.2103571643       -6.2900829540       -1.0719325641
 H       -12.9931077246       -2.7533217352        0.4082076268
 H       -13.5547998352       -2.9602427188       -1.4917640973
 H       -11.9714576578       -2.2577609765       -0.7299162983
 H       -12.7153739078       -6.0464018709       -2.3282241317
 H       -11.5030175254       -4.9755377588       -2.8877268682
 H       -13.2293280153       -4.4553542148       -2.7022055944
 H        -5.0397179271       -1.1133276934        0.1391570089
 H        -5.4017024144       -2.5503748760       -1.0359591755
 H        -4.7663004404       -2.8599417702        0.5034426077
 H        -5.9176940862       -1.6290724643        2.3852787097
 H        -6.3242939351       -3.2472672335        2.5593909714
 H        -7.5757502666       -2.2725537176        2.7182732206
 H        -8.5927594531        4.6321697917       -2.9710140448
 H        -9.3441219112        3.0553164008       -2.9799490023
 H        -7.8339123364        3.3426566145       -4.0330364794
 H        -5.3550967204        3.3782332526       -2.0947024299
 H        -5.9598170792        4.9658424569       -1.6894591624
 H        -5.9695398548        4.4804479857       -3.3556138736
 H        -5.5661402255        8.4499790115        1.7824596275
 H        -6.3645703013        9.8647727880        1.3272248004
 H        -5.9648445202        8.6146812253        0.0544138749
 H        -7.3076398351        8.9101290208        3.5702771701
 H        -8.9471452573        8.3723445468        3.3175066393
 H        -8.5824766460        9.7833235085        2.6172993548
 H       -12.5638657490       10.5747596948       -3.9261779881
 H       -11.0118332408       10.2788379125       -3.4971290974
 H       -11.5021995820       11.9789943294       -3.7494771301
 H       -14.0803861159       11.7511989329       -2.0223382111
 H       -12.9319093673       13.0680394739       -1.7825410017
 H       -13.4088265655       12.1584174367       -0.5036094520
 H       -14.5168719251        4.2331828803        0.4262878528
 H       -12.7401154224        4.2236911831        0.1274058190
 H       -13.7100926501        5.3838389235       -0.7332612714
 H       -15.2532897593        6.1805753553        2.7626275910
 H       -15.7533168850        5.0840902989        1.5384844809
 H       -15.7985343887        6.6165172120        1.1060577531
 Na      -10.1950191966        5.9177764857        0.6947113887
