117

 C       -13.6100089558        4.5990477736        3.4947268142
 C       -12.7884971804        5.4372903003        2.4134404852
 O       -11.5721950224        5.5307590162        2.4860712946
 C       -13.5507910827        6.0015517272        1.2163349450
 C       -13.0256163706        7.4811166180        0.9926674276
 O       -11.9194434270        7.8029886442        0.9214971417
 C       -14.1714376000        8.4892328788        0.7046039796
 C       -13.5555687483        9.7597926948        0.0737468521
 C       -12.8102943873        9.6379892978       -1.2513454348
 O       -12.4620070782        8.5957021663       -1.7617005202
 C       -12.2160189167       11.0852761333       -1.7479282948
 C       -10.7757781389       11.1482347710       -0.9896356629
 O       -10.8286458355       11.6748841014        0.0353262897
 C        -9.5772036389       10.3074957636       -1.5501041233
 C        -8.5103658606       10.1613852145       -0.4508748687
 C        -8.4911298805        8.6693217581        0.2062468102
 O        -9.3239424320        7.8888447789       -0.1929127746
 C        -7.4296192535        8.2855278967        1.3483558747
 C        -7.5889884133        6.7676766161        1.4516719119
 O        -8.5095893006        6.3480866698        2.0825319010
 C        -6.6004029006        5.9505808733        0.6235475322
 C        -6.9266338950        4.3742297573        0.6071074298
 C        -7.9243941494        3.9058525999       -0.5837466132
 O        -9.1167962174        3.9365561743       -0.3274100059
 C        -7.3327440375        3.1723585644       -1.8797469739
 C        -7.1391864380        1.5749925346       -1.7575639967
 O        -6.0639855418        1.2423546715       -1.3126444922
 C        -8.3254085695        0.6534434630       -1.7887423167
 C        -8.0158412926       -0.6937442331       -0.9974793779
 C        -7.4833390173       -0.7474977581        0.4676304205
 O        -7.5487155386        0.1211373603        1.2610889092
 C        -6.9470274234       -2.1648031662        0.8060384971
 C        -7.7636650714       -3.4067941567        0.1080958937
 O        -7.5451243055       -3.8022634351       -0.9735782732
 C        -8.7439805504       -4.1784245600        0.9139523611
 C        -9.6412733721       -5.1268980689        0.0533085031
 C       -10.5704740928       -4.2320013270       -0.7705786197
 O       -10.0439401328       -3.3191864336       -1.3693105091
 C       -12.1574292462       -4.5031608834       -0.8679856264
 C       -12.8590542897       -5.3842901584        0.2411724233
 O       -12.1576083992       -6.0521271690        0.9371367402
 C       -14.4671808256       -5.5973407456        0.2292297602
 C       -12.7545133541       -3.0412467202       -0.6759410558
 C       -12.2964508236       -5.0582373930       -2.2557971875
 C        -5.5146119923       -2.2831302978        0.0588079781
 C        -6.9552220679       -2.3059079716        2.3021397647
 C        -8.4202074056        3.6085942914       -2.9628688869
 C        -5.9576579177        3.6660641537       -2.2602537612
 C        -5.9574676660        8.6867925483        0.7937849278
 C        -7.7301563820        9.1644066493        2.6124530412
 C       -12.0667248466       10.7360259391       -3.2935564844
 C       -13.2494642655       12.3450741913       -1.5699067171
 C       -13.1049571882        5.2041808201       -0.1010549768
 C       -14.9619187056        5.9901307219        1.5697584110
 H       -14.0901165073        3.7355647613        2.9993030321
 H       -14.2177679787        5.2423646002        4.0140250397
 H       -12.8415438216        4.1468004544        4.1741942453
 H       -14.5828658768        8.8200740565        1.6724701894
 H       -15.0507933600        8.1557097064        0.0100566147
 H       -12.8570874960       10.2416285696        0.8393046723
 H       -14.2640299149       10.5264578940       -0.0289681234
 H        -9.2777381249       10.7659306336       -2.5432262916
 H        -9.9173189772        9.3299123646       -1.9706701670
 H        -8.6168935057       10.8614365910        0.3443844049
 H        -7.5123381858       10.4294131877       -0.8333690170
 H        -5.7138524192        6.0921184206        1.1343197717
 H        -6.5492853307        6.3654617035       -0.4648491770
 H        -7.4573467510        4.0779059970        1.4950191708
 H        -6.0107633980        3.9037136705        0.5947355436
 H        -8.5526874330        0.2651831055       -2.7401993401
 H        -9.1848711310        1.1013118506       -1.3258911910
 H        -7.6175389430       -1.4409183689       -1.6514223252
 H        -9.0238527460       -1.1486627888       -0.9260660823
 H        -9.2015687364       -3.4908512883        1.5271466427
 H        -8.0764182829       -4.7312005017        1.6499123386
 H       -10.2639241900       -5.8084994597        0.6722311305
 H        -9.0794642700       -5.7112246065       -0.6318067158
 H       -14.7061614581       -5.4490958651       -0.8253696330
 H       -15.1046108958       -4.8314970611        0.7635578489
 H       -14.7062128205       -6.5225233547        0.6584713497
 H       -11.9842303099       -2.3957491407       -0.7146116890
 H       -13.5124850508       -3.0018843430        0.0414489184
 H       -13.1476155766       -2.6850193779       -1.6830147635
 H       -11.5860896567       -5.8549932932       -2.4140669344
 H       -12.0707307573       -4.2263025063       -2.9686550827
 H       -13.3300483324       -5.5383346628       -2.4706091823
 H        -5.2063131087       -1.2827894529       -0.0890210062
 H        -5.7985604603       -2.7841415506       -0.8642557182
 H        -4.7778803732       -2.8345616629        0.6210183383
 H        -6.3440089913       -1.5506075118        2.8593828651
 H        -6.6821448225       -3.3410190216        2.8105085643
 H        -8.0038770763       -2.3180077476        2.5672865966
 H        -9.1684705853        4.2949019135       -2.6629521101
 H        -8.9972182224        2.7008931110       -3.2118459771
 H        -7.9549497778        3.9520644608       -3.8990038014
 H        -5.1459834381        3.4737733949       -1.4859457030
 H        -6.0283399304        4.7924538529       -2.5671354550
 H        -5.6859517881        3.1827861043       -3.1278638391
 H        -5.1443048094        8.0100455145        1.3441924411
 H        -5.9425709374        9.6968615290        1.0982803389
 H        -5.9208039024        8.5394395507       -0.2709538706
 H        -7.1677607177        8.6744231123        3.4740729076
 H        -8.7194908028        9.3851794779        2.8967421542
 H        -7.4421424669       10.1786645511        2.4507281606
 H       -12.8960188835       10.1356280801       -3.6564472737
 H       -11.1976257453       10.2482550092       -3.7265906154
 H       -12.1456901458       11.6385071609       -3.9041408401
 H       -14.3655097963       12.0787477430       -1.5470664989
 H       -13.0289403321       13.2312508844       -2.1997385062
 H       -13.0261654691       12.9482227449       -0.6190041273
 H       -13.8234288117        4.5470196488       -0.6897526561
 H       -12.2226370704        4.6306232026        0.2309450525
 H       -12.6751426789        5.9210296303       -0.8012336326
 H       -15.2307169237        6.8332967861        2.2074726776
 H       -15.3016881658        5.0700221018        2.1528133984
 H       -15.5101997760        5.8234316417        0.6591081320
 Na      -10.4405026054        5.6840904802        0.6131045338
