117

 C       -13.6695755166        5.0414516302        3.4817975040
 C       -12.8258509913        5.4842657476        2.2409652827
 O       -11.6747628316        5.4231737546        2.2769914374
 C       -13.5292357632        6.0611306853        0.9052551587
 C       -13.1466077572        7.6402816092        0.9580088894
 O       -12.0679777915        7.9954279384        1.3501030208
 C       -14.3025513753        8.7779299607        0.8390129866
 C       -13.7511370995       10.0750700150        0.2232838401
 C       -12.9139373448        9.9011298450       -1.0345279529
 O       -12.6306550360        8.8012275415       -1.4127933172
 C       -12.2751915938       11.1181320130       -1.8329956734
 C       -10.7461424987       11.2463989332       -1.2401359931
 O       -10.4999526491       11.8177338221       -0.2463778832
 C        -9.6429420210       10.2364660608       -1.7457434903
 C        -8.5771881294       10.0906464110       -0.5925964989
 C        -8.2785712555        8.5776443996       -0.3660194194
 O        -9.0841152830        7.7362119935       -0.7361996322
 C        -7.1727055160        8.1784916638        0.6132781251
 C        -7.3304583363        6.6784526750        1.0932759949
 O        -8.2208251787        6.4621814899        1.8745130768
 C        -6.3067440165        5.7127211589        0.5722164907
 C        -6.8931463385        4.1562837588        0.6472636244
 C        -7.9585237278        3.7941064682       -0.4341465187
 O        -9.0812531305        4.1572595838       -0.3775342795
 C        -7.2805153715        2.9888773702       -1.6316633605
 C        -7.0669225711        1.4631619432       -1.1946661746
 O        -6.0088858411        1.1714737932       -0.6947231102
 C        -8.3458813144        0.5364888300       -1.3335468984
 C        -8.0327772739       -0.9038401155       -1.1234336162
 C        -7.7690128375       -0.9746123660        0.4980521863
 O        -8.1527076348       -0.0502577465        1.1074380313
 C        -6.9772886155       -2.3252992313        1.1744477879
 C        -7.6861671549       -3.4943384969        0.3288623885
 O        -7.3842665710       -3.6052074701       -0.7919168876
 C        -8.7468975175       -4.4855952275        1.0360524869
 C        -9.7823470371       -5.1502170881        0.1693472319
 C       -10.7856479420       -4.1757945036       -0.6629923567
 O       -10.3621483735       -3.1010493723       -1.0502768132
 C       -12.3183072603       -4.4793949433       -0.8323013487
 C       -13.0197479937       -5.5095918777        0.2331312016
 O       -12.3397964003       -6.2662761891        0.8917782345
 C       -14.5295782744       -5.5284181552        0.5993271288
 C       -12.9828318671       -3.0410066720       -0.9214163321
 C       -12.4645781467       -5.4613034298       -2.1660217643
 C        -5.4782199850       -2.0899607997        0.7316369176
 C        -7.2407907905       -2.3162975146        2.7371420498
 C        -8.2417819256        3.1350508491       -2.8355015611
 C        -5.9012508085        3.6105223893       -1.9338639682
 C        -5.8176398063        8.7451405916        0.0860969040
 C        -7.5206615587        8.8945560474        2.0211189694
 C       -12.1168559461       10.6294105201       -3.3302895993
 C       -13.0172054694       12.5406468449       -1.6803355712
 C       -12.6829796199        5.4960878989       -0.2996945344
 C       -14.9811931967        5.8096441855        0.9092418459
 H       -13.6125745792        3.9623467318        3.4299843332
 H       -14.6635408071        5.4188483453        3.4100306970
 H       -13.1528434480        5.4598515569        4.4188200211
 H       -14.6662146538        8.9912214857        1.7625823184
 H       -15.2241409224        8.4369148936        0.3073150024
 H       -13.1078736765       10.5325013283        0.9721960129
 H       -14.5520386180       10.7592018413        0.1021458774
 H        -9.1580570971       10.4530170211       -2.7063599826
 H       -10.1685670737        9.3217160555       -1.9607001534
 H        -8.8681408485       10.5790224867        0.3733886757
 H        -7.6524551862       10.6608544775       -0.8827226768
 H        -5.5539127248        5.7859636507        1.3498698128
 H        -5.9893442261        6.0527703876       -0.4759418175
 H        -7.4799126214        4.1179513759        1.6394539554
 H        -6.0565690295        3.5148427400        0.7339133193
 H        -8.7925242727        0.6882399404       -2.3082122365
 H        -8.9667541941        0.8581244622       -0.3877698339
 H        -7.2722170824       -1.2596067011       -1.8715693242
 H        -8.8890674420       -1.5591385072       -1.3602562276
 H        -9.2318206027       -3.7742340304        1.7870498324
 H        -8.1956307235       -5.1713205918        1.6846480968
 H       -10.3399328068       -5.9007735994        0.7175649145
 H        -9.3570957010       -5.6884557245       -0.7346464368
 H       -14.7626038740       -6.5773156395        0.8777459529
 H       -15.2965161005       -5.2250535762       -0.1366854134
 H       -14.5320321197       -4.9399517513        1.4300641393
 H       -13.2833622527       -2.8714704938       -1.9710661786
 H       -12.1794427624       -2.3530248384       -0.5498162083
 H       -13.9189296189       -2.7344100051       -0.2042719867
 H       -11.5832170291       -5.7263815777       -2.7412375583
 H       -13.2974539178       -5.1626344138       -2.7070815107
 H       -12.8025969278       -6.4323589331       -1.7929738784
 H        -4.9367049523       -1.4710476043        1.4426671784
 H        -5.6059321764       -1.6562778226       -0.2771044265
 H        -5.0392214526       -3.0946907808        0.7370455368
 H        -6.8283429260       -1.3107595234        3.0742663850
 H        -6.4991350589       -3.0497409678        3.2765138768
 H        -8.1935392540       -2.3553002304        3.1361854616
 H        -8.4969734754        4.2123391353       -2.8329483239
 H        -9.1855920534        2.5423379993       -2.8556715270
 H        -7.8191320280        2.9651262280       -3.8637444530
 H        -5.1312591101        3.7301453783       -1.1910405712
 H        -6.0944106973        4.6553806096       -2.2940459567
 H        -5.5701097702        3.1242306852       -2.7916924073
 H        -5.1368984310        8.7284734061        1.0566950684
 H        -5.9306476985        9.6571418790       -0.4257571355
 H        -5.4437925345        7.9453834505       -0.4409686110
 H        -6.7578884798        8.5485711812        2.7995128661
 H        -8.5267619514        8.7214124334        2.3781833728
 H        -7.4624538965        9.9818369731        1.9469459087
 H       -12.7936270680       11.2069179168       -4.0258398344
 H       -12.1528433747        9.5674852501       -3.4768621155
 H       -11.1476216361       10.8590378128       -3.7686313123
 H       -14.0382477517       12.3842337637       -2.0410336347
 H       -12.5464391654       13.2826776550       -2.3329629390
 H       -12.9820316058       13.1140879681       -0.7677237678
 H       -13.2515026264        5.4197055666       -1.1961907312
 H       -12.2724199505        4.4450316232       -0.0322242922
 H       -11.9744153421        6.2611855019       -0.6234613952
 H       -15.4780822464        5.6577210327        1.8419134453
 H       -15.0832202626        4.8200790475        0.3284693974
 H       -15.3800792331        6.6203974753        0.3589967554
 Na      -10.1355286735        6.1047711068        0.6192130906
