117

 C       -13.7086532325        5.7763702521        2.9815619215
 C       -12.8169932735        5.4898987554        1.6669853999
 O       -11.7333892215        5.0277248149        1.7297381628
 C       -13.3919204116        6.2633303556        0.5823006239
 C       -12.9390567150        7.7480844136        0.8992069501
 O       -11.7307061371        7.9941483971        1.0257422822
 C       -13.9764630224        8.9129323281        1.0498352048
 C       -13.4718242837       10.1630901106        0.4074260801
 C       -12.8657882681        9.9465131985       -1.1112894353
 O       -12.9205649212        8.8263134164       -1.6352704871
 C       -12.2087044482       11.1074640950       -1.8116250512
 C       -10.6853777271       11.0535991027       -1.3271215816
 O       -10.2666043990       11.8026816784       -0.5407515654
 C        -9.8732588934        9.9174270849       -1.9816022073
 C        -8.4516253718        9.8166396123       -1.4118000082
 C        -8.2206609863        8.4452162970       -0.6543336151
 O        -9.0119382998        7.4897060239       -0.8494937655
 C        -6.9503149634        8.1419579272        0.2613260099
 C        -7.1830591235        6.7682070627        1.0275917326
 O        -8.0513497981        6.7436066660        1.8680212326
 C        -6.1818572077        5.6460108459        0.7996459948
 C        -6.6968567955        4.1848835602        0.7077050872
 C        -7.6553591822        4.1156778871       -0.4461347504
 O        -8.6688747573        4.7267288204       -0.4980485217
 C        -7.3236954074        2.9288517210       -1.6108518794
 C        -7.3480525008        1.6038474141       -0.8269749274
 O        -6.4536529384        1.5704379201        0.0643053547
 C        -8.2909906720        0.4094600789       -1.2027141325
 C        -7.9447648073       -1.0112508636       -0.7101318638
 C        -8.1607779001       -1.1452306616        0.8654092813
 O        -8.9046561883       -0.4544864948        1.4921628913
 C        -7.4270266578       -2.5392623323        1.5334813517
 C        -7.8339956490       -3.6422599015        0.6285048576
 O        -7.1628752242       -4.0258174227       -0.2689587963
 C        -9.0207444807       -4.4944516571        1.1735089553
 C        -9.8744900517       -4.9169080696       -0.0150086245
 C       -11.0311904159       -3.9710885169       -0.4071864078
 O       -11.0218813682       -2.7799424897       -0.2699411529
 C       -12.3674842028       -4.6500284366       -0.8800461780
 C       -12.9208108108       -5.4438213034        0.5300045472
 O       -12.1778434535       -6.1270170176        1.1216041816
 C       -14.4965447620       -5.3529286004        1.0170267932
 C       -13.2935759251       -3.5497384754       -1.2676563306
 C       -12.0699484419       -5.6629401713       -2.1129142244
 C        -5.8258808339       -2.2909936876        1.2932313091
 C        -7.6430597870       -2.7900131036        3.0190114099
 C        -8.3080007183        3.3162853132       -2.9144092312
 C        -5.8891076448        3.2378354311       -2.1751320695
 C        -5.7019518075        8.1149669488       -0.6732626257
 C        -6.8197408127        9.1155518457        1.4583589883
 C       -12.3808154459       10.8770123753       -3.3103228726
 C       -12.9213096864       12.3876588940       -1.4769111233
 C       -12.6847739318        5.8013134125       -0.8216015252
 C       -14.8810759869        6.1708873753        0.4486029852
 H       -14.5404739207        4.9598898901        3.0891348389
 H       -14.2778525789        6.7358557852        2.8961578749
 H       -13.0832905345        5.8910983280        3.7925812158
 H       -14.1850409555        9.1099925000        2.0150372350
 H       -15.0052604418        8.6457520930        0.7550416300
 H       -12.6310626736       10.4911448679        1.0835171487
 H       -14.3067716105       10.7967249247        0.4991682958
 H        -9.7797193998       10.2488092425       -3.0181382093
 H       -10.4075083026        8.9999611688       -1.9351195165
 H        -8.2844392147       10.7300341743       -0.8363897008
 H        -7.6934558335        9.7846025771       -2.2108820309
 H        -5.6088794801        5.7482591432        1.7014003556
 H        -5.5138425544        5.9104456628       -0.1675791550
 H        -7.2097809794        4.0609525474        1.7560529078
 H        -5.9152742752        3.4262404045        0.6321748005
 H        -8.2591887524        0.3253569242       -2.3007878739
 H        -9.3985674631        0.5781305837       -0.7809575720
 H        -6.8858841898       -1.3128042720       -0.9390933863
 H        -8.6183360648       -1.7142364688       -1.2528364919
 H        -9.4708544161       -3.9567999714        1.9645417734
 H        -8.6640826841       -5.4917113119        1.5755426155
 H       -10.2320220755       -5.9304152562        0.1150192571
 H        -9.1898423674       -4.9413074306       -0.8966810414
 H       -14.5909209076       -6.1440799238        1.7639610925
 H       -15.0802626125       -5.6777272562        0.0847090850
 H       -14.8474955577       -4.4327106554        1.4661157243
 H       -14.3255627135       -3.6949084618       -0.9296760335
 H       -13.5822825159       -3.6442017683       -2.3863218749
 H       -12.9165801849       -2.5951198993       -0.8815036193
 H       -12.5991378740       -5.4588165748       -2.9783265781
 H       -12.1592629476       -6.6815584337       -1.7752997298
 H       -11.0420411206       -5.5503058996       -2.5234083327
 H        -5.6082204256       -1.2221321282        1.2860205682
 H        -5.4784655667       -2.6376333432        0.2778606496
 H        -5.3274645575       -2.8649786853        2.1253735492
 H        -6.9762401246       -2.2949172923        3.5799400044
 H        -7.6264729576       -3.8210976618        3.2337422303
 H        -8.5883859467       -2.2213256870        3.3672832225
 H        -7.8941797052        3.5439494314       -3.9177068314
 H        -9.0340075572        4.0737180393       -2.4604220348
 H        -9.0431254866        2.6457293409       -3.3036771786
 H        -5.2383672224        3.4793253013       -1.3514816223
 H        -5.8464005814        4.1680551819       -2.7587812425
 H        -5.4973335137        2.5036304947       -2.7126850203
 H        -4.9345615445        7.6049799350       -0.1141825353
 H        -5.4751235929        9.0993786244       -0.9960608194
 H        -5.9556728933        7.4391049783       -1.4964367487
 H        -6.0831593926        8.8505459257        2.2844156431
 H        -7.7257677126        9.3207336996        1.9823221142
 H        -6.3186217161        9.9712047174        1.0540183560
 H       -13.3980133956       10.5477254049       -3.4963577248
 H       -11.6931424485       10.2123327109       -3.7882184286
 H       -12.3138902281       11.8036870603       -3.8560692939
 H       -13.9515288054       12.2277962903       -1.1221341031
 H       -12.9216061874       13.0802728565       -2.2252562134
 H       -12.4254698902       12.6790009213       -0.5900263782
 H       -12.5461503529        6.5367316515       -1.5625564465
 H       -13.0768504498        4.8856136960       -1.2372141025
 H       -11.6648923827        5.7296140202       -0.5138083151
 H       -15.3719097732        6.9238780744        1.0349691585
 H       -15.1121142229        5.1577439367        0.8321725328
 H       -15.0970308158        6.3955499424       -0.5724119547
 Na       -9.9936508667        6.4049054129        1.0863998530
