117

 C       -13.7057238392        5.4083498362        2.9192925759
 C       -12.8975340919        5.4336926361        1.6275389034
 O       -11.8240636550        4.9455720233        1.5507990403
 C       -13.3548253927        6.3465071194        0.3663497185
 C       -12.6414295155        7.8268421809        0.6607609215
 O       -11.4608301279        7.7736208080        0.5594440603
 C       -13.5549889866        8.9635672604        1.0425297365
 C       -13.1472783839       10.3784504908        0.4453577939
 C       -12.8621379359       10.0767838681       -1.0343093479
 O       -13.1104407190        8.9759910477       -1.5016593861
 C       -12.1864521201       11.2136433600       -2.0042230705
 C       -10.5962359831       10.8529096452       -1.6334556940
 O       -10.1109217319       11.5350543914       -0.8333195074
 C        -9.8193280131        9.7673811760       -2.3348632743
 C        -8.3849965607        9.6911234301       -1.7271153627
 C        -8.1548838572        8.4530128750       -0.6853604553
 O        -9.1544024548        7.7489689321       -0.4455900532
 C        -6.7943860710        8.2056645271       -0.0093401857
 C        -6.9428383264        7.0059211396        1.0397812921
 O        -7.8555178283        6.9323919704        1.7856959198
 C        -5.9289091642        5.7744856175        0.9398911661
 C        -6.6207409534        4.3474911486        0.7500189595
 C        -7.6092995239        4.1232693600       -0.3412371624
 O        -8.6064473264        4.8447713801       -0.6889522279
 C        -7.4567927131        2.9401178626       -1.2685703737
 C        -7.5514277846        1.6633228251       -0.3734478835
 O        -6.6798125066        1.4757202527        0.4715444332
 C        -8.4582908111        0.4465274720       -0.8549327356
 C        -7.8217959687       -0.8915696460       -0.4295994751
 C        -8.3098633147       -1.2068048700        1.0064904709
 O        -9.2524659348       -0.6964107408        1.5671268058
 C        -7.5253430912       -2.3748793422        1.7187278399
 C        -7.9045408692       -3.6641918783        0.8125504750
 O        -7.1334949717       -4.0932342474        0.0291703792
 C        -9.1108238611       -4.3753485209        1.1514903517
 C        -9.7911743970       -4.7337794397       -0.2117490262
 C       -11.2092949522       -3.9597510849       -0.3115966750
 O       -11.4619294339       -2.9140103509        0.2159003273
 C       -12.4261768001       -4.8120656994       -0.8313883684
 C       -12.9259223173       -5.3893838134        0.5087795689
 O       -12.2637617671       -6.1292085043        1.1811724696
 C       -14.3690033748       -5.2518839039        0.9983411212
 C       -13.4967624568       -3.8062330972       -1.4497803559
 C       -12.2575720257       -5.9413790252       -1.8432141796
 C        -5.9947691763       -2.2782132018        1.7219183008
 C        -7.9842229226       -2.3594029198        3.2126795271
 C        -8.5827022634        2.9309452039       -2.3627503435
 C        -6.1220783120        2.9409115314       -1.9091462761
 C        -5.7413364291        7.9679090922       -1.1977757769
 C        -6.5443856091        9.5845362301        0.6757972839
 C       -12.4804957707       11.1629571677       -3.4452942851
 C       -12.3378074832       12.6264681692       -1.4118017013
 C       -12.5590733094        5.8345954392       -0.9161376657
 C       -14.7832784027        6.4364266523        0.0926850422
 H       -14.7727498517        5.4865288169        2.5343736833
 H       -13.4825240742        6.2884786661        3.5433546269
 H       -13.4616296258        4.5578534058        3.4815825670
 H       -13.6385206405        8.9774949701        2.1254133825
 H       -14.6138533227        8.5692511748        0.7732654348
 H       -12.1818049295       10.5906322446        0.9494738315
 H       -13.9907427907       11.1343457161        0.5403919068
 H        -9.6320973808       10.0479030291       -3.4055281557
 H       -10.2476672784        8.7336973902       -2.1600815300
 H        -8.0715089173       10.6248513750       -1.2436829262
 H        -7.8027794491        9.5524015710       -2.6188737996
 H        -5.4611849787        5.6649624174        1.8772391200
 H        -5.0700065298        5.8766787681        0.2080847862
 H        -7.2784309215        4.3805757983        1.6422305937
 H        -5.9218319905        3.5869616653        0.9423329036
 H        -8.5868998173        0.4425647721       -1.9107588064
 H        -9.4772862861        0.6101640307       -0.3827512508
 H        -6.7418479700       -0.6929074742       -0.3519682916
 H        -8.0324538484       -1.6954621600       -1.0868043879
 H        -9.8610644877       -3.8440184087        1.8174120550
 H        -8.6897856835       -5.1946879986        1.6953244906
 H       -10.1190617362       -5.7156463231       -0.1607193394
 H        -9.1284871696       -4.6379051078       -1.0973051905
 H       -14.3050650456       -5.9531656277        1.8488369097
 H       -15.2139559390       -5.1896358724        0.2537320556
 H       -14.3457239303       -4.3356254447        1.4965141007
 H       -13.4582408437       -2.8102646224       -1.2361421773
 H       -14.4215074810       -4.1025420701       -1.0808640071
 H       -13.3383405271       -3.7316208318       -2.5184346517
 H       -12.7132457417       -6.9051917557       -1.4945619090
 H       -11.1961740295       -6.1366762785       -2.0632413136
 H       -12.6965750220       -5.6527956376       -2.8680806877
 H        -5.6800773905       -1.3054142543        2.0264479298
 H        -5.5961282596       -2.4882531852        0.7386416260
 H        -5.6418226866       -3.1052628490        2.3099553029
 H        -7.9764032854       -1.3907806346        3.5474840827
 H        -7.2155539364       -2.8655702575        3.7688455448
 H        -8.9853367429       -2.7688531807        3.4780214229
 H        -8.4510411343        2.1594288568       -3.1125579022
 H        -8.8332651604        3.7998559263       -3.0249005879
 H        -9.5624511131        2.5902400706       -2.0207579869
 H        -5.2364901304        2.5352465018       -1.3357630063
 H        -5.8424920866        4.0392425460       -2.2159988770
 H        -6.1650056416        2.4125948301       -2.7936371167
 H        -4.7472324860        8.0478202156       -0.6491928720
 H        -5.8107256088        8.8042396829       -1.9188157915
 H        -6.0508982191        7.0464712736       -1.7191875874
 H        -5.4655546138        9.6114363996        1.0052829994
 H        -7.0603912667        9.5839647128        1.5889184980
 H        -6.5540487638       10.4023104510       -0.0101858422
 H       -13.5802805869       11.0941623495       -3.7595590136
 H       -12.0299131744       10.2905057694       -3.9174534546
 H       -12.0336233191       12.0694221246       -3.8728702053
 H       -13.3538444398       13.0814398543       -1.7109130237
 H       -11.6064035655       13.2583398573       -1.8539508005
 H       -12.4099112626       12.5206004928       -0.3181716496
 H       -12.9171373606        6.3272681596       -1.8192118907
 H       -12.8092373592        4.7264005879       -1.0896157144
 H       -11.4536900839        5.9457659059       -0.9136065731
 H       -15.3640592668        6.6608133095        0.9699366135
 H       -14.9642657085        5.4572906548       -0.4730804398
 H       -14.8872977036        7.1994278949       -0.6332025295
 Na       -9.9432615928        5.9159623811        0.7726970064
