117

 C        -3.4196860052        9.5301570117        5.9748937269
 C        -4.5090759471        8.9389392911        4.9306770632
 O        -4.2845486955        8.9838850242        3.7289303836
 C        -5.7701978100        8.2765913932        5.5987336333
 C        -5.7019275689        6.7802610111        4.9983614684
 O        -4.9504175754        5.9998692277        5.4767743102
 C        -6.7009126751        6.4256276168        3.8797384825
 C        -6.1462732134        5.2398367497        3.0908564694
 C        -6.9144201691        5.0342249444        1.7808041238
 O        -8.1368080034        4.9849924273        1.6710491194
 C        -6.1657384743        4.8070239312        0.4675681246
 C        -6.0569777446        3.2674321451        0.2007484628
 O        -5.1605997615        2.8826846883       -0.4835175973
 C        -7.1380092963        2.3035817072        0.7059290965
 C        -7.2211183567        1.0034288040       -0.1618036237
 C        -8.3930187384        0.1028904297        0.2575477632
 O        -9.2848640602       -0.0062821717       -0.5254858612
 C        -8.3846384333       -0.6755144908        1.5394626056
 C        -9.2006982342        0.1906102412        2.5422219354
 O        -8.6362506598        0.8632003399        3.3369771280
 C       -10.7829342768        0.1119825973        2.3343188571
 C       -11.4574701984        1.4518006979        2.6608945827
 C       -11.3517378828        2.4903119344        1.4949673775
 O       -10.4824350496        2.1651934381        0.7185853823
 C       -12.3054444999        3.7404334461        1.2618505845
 C       -13.3345489576        3.3265512889        0.1467640815
 O       -13.1362333798        2.3818907557       -0.6223105117
 C       -14.6498255329        4.0065857892        0.0145829428
 C       -15.3814069065        3.7844515919       -1.3938698824
 C       -14.9465633639        4.8817652047       -2.4588202030
 O       -14.3358902987        5.7872372484       -2.0225886678
 C       -15.5095744080        4.8935653866       -3.9578698636
 C       -14.3266757021        4.4816149220       -4.9272857620
 O       -14.5073785216        3.7072040406       -5.8699017988
 C       -12.9699954180        5.1031131096       -4.8576755374
 C       -11.8854058380        4.1412499165       -5.3393257182
 C       -11.2550837968        3.1097810482       -4.2837837805
 O       -11.6325258501        3.0159324280       -3.1592685485
 C       -10.2416331859        2.0884938057       -4.8862163003
 C       -10.6686272503        0.6793781073       -4.2586545800
 O       -10.1211389449        0.2486767498       -3.2320526388
 C       -11.7888763620        0.0037983818       -5.0096326341
 C       -10.1315005063        2.1312116029       -6.4223259374
 C        -8.8272986123        2.3432447739       -4.3865878071
 C       -16.6295003275        3.8838922390       -4.3062425804
 C       -15.9604637647        6.2766275250       -4.3501853808
 C       -13.0875505611        4.0899230568        2.5315380864
 C       -11.2669486577        4.8876900559        0.9765870678
 C        -9.0865196391       -2.0061804778        1.2655088755
 C        -7.0460298904       -1.0174669740        2.2696356220
 C        -7.0440468469        5.3625786327       -0.7066094683
 C        -4.7097585700        5.3711071879        0.5410598021
 C        -5.6001465899        7.9960691278        7.1138967988
 C        -7.0325830557        9.0556108940        5.2357770374
 H        -3.6063240430        9.7461265068        7.0310016060
 H        -2.9654580676       10.3960505914        5.5139464826
 H        -2.7176919432        8.7837487128        5.8693168699
 H        -6.9161302582        7.3069941158        3.2736241129
 H        -7.5896725860        6.1547079781        4.3788997814
 H        -6.2412029930        4.3706309082        3.8061786579
 H        -5.0700001530        5.4662804368        2.7966219666
 H        -8.0623384632        2.7855222039        0.8251405479
 H        -6.8864701530        2.0628717839        1.7364893954
 H        -6.3031677580        0.3739605842       -0.1397847623
 H        -7.2029137491        1.2698065276       -1.2255160917
 H       -11.2889026042       -0.7106353505        2.9255511572
 H       -10.7991509182       -0.1931324394        1.2616780875
 H       -11.0429506971        1.7811039971        3.5978079536
 H       -12.5708970698        1.3811491830        2.8278519452
 H       -14.7144929075        5.0526124728        0.4179251469
 H       -15.3427058687        3.6290950130        0.7720172931
 H       -16.4997718628        3.7910244841       -1.2382736342
 H       -15.0309333131        2.7336614373       -1.5897840009
 H       -12.7527901282        5.3127249429       -3.8048232668
 H       -12.8276404257        5.9635968902       -5.5039613618
 H       -11.0335245756        4.5672961440       -5.7466907053
 H       -12.4119373336        3.6301345946       -6.1242089707
 H       -11.3603864849       -0.1204616681       -6.0249609951
 H       -12.6457052076        0.6514617946       -5.1161663491
 H       -11.9880414688       -1.0409123248       -4.7539990228
 H        -9.7466039442        3.0906899913       -6.7581110305
 H       -11.1676888706        1.8125577048       -6.7780020972
 H        -9.5544192661        1.2494325676       -6.7393144582
 H        -8.6759316430        2.5187049060       -3.3061038671
 H        -8.3126936949        3.0952531808       -4.9816860215
 H        -8.2460589568        1.3173981540       -4.6825105618
 H       -16.1819387918        2.9607610446       -4.1349083848
 H       -16.7577235562        3.9427638881       -5.3236729577
 H       -17.5586534065        3.8717637442       -3.7196300763
 H       -16.0302647108        6.3120275163       -5.4237014637
 H       -15.2280822760        6.9659678813       -4.1100297229
 H       -16.9678768053        6.5616132248       -3.8491452369
 H       -12.3559244075        4.2123526265        3.3148905429
 H       -13.7951063538        3.3417705846        2.7642315159
 H       -13.6887975883        4.9865288128        2.3881968021
 H       -10.6352478940        4.9612571991        1.8600855996
 H       -11.7222517024        5.8599206897        0.7031202160
 H       -10.6447491205        4.6278345658        0.1834857040
 H        -9.3572179257       -2.5591548142        2.1381230623
 H        -8.2819477250       -2.5669089551        0.6997381862
 H        -9.9975418914       -1.8919539572        0.6928435355
 H        -6.2057933699       -0.5742508137        1.7122589668
 H        -6.9061076062       -2.1399933696        2.2506804632
 H        -7.0941809853       -0.7271392817        3.2929100472
 H        -7.4874081264        6.2578778828       -0.4381643051
 H        -7.7561269024        4.5809226659       -1.0144404796
 H        -6.4345229145        5.7287982551       -1.5110029962
 H        -4.5974785948        6.3658542280        0.9719289297
 H        -4.2369382451        5.3350318596       -0.4758293751
 H        -4.1917809674        4.5948032297        1.0743569452
 H        -4.5816306032        7.6555030543        7.3038817812
 H        -6.3205912418        7.2696442992        7.4519924010
 H        -5.9104813376        8.9104482312        7.6440193686
 H        -7.5695859236        8.5938539964        4.3892149635
 H        -6.7166784876       10.0009101856        4.7791098295
 H        -7.6636511306        9.1294936398        6.1380346449
 Na      -11.0021790019        1.6475404908       -1.4079991733
