117

 C       -14.0563181437        4.8888063162        2.3924687291
 C       -12.9704137387        5.4277260474        1.5511657119
 O       -11.8236813435        5.0107803852        1.6115332139
 C       -13.3197607276        6.3989973637        0.2812996200
 C       -12.5606732400        7.7516049456        0.7392357215
 O       -11.4327211176        7.7054003759        0.9381710350
 C       -13.2731679471        9.0342615189        0.9364646980
 C       -12.5477842945       10.3388409197        0.3743211575
 C       -12.5970124285       10.1932358501       -1.1403265224
 O       -13.2828779494        9.3217853231       -1.5989853290
 C       -11.8181683981       11.2784240178       -1.9667903901
 C       -10.2474971956       10.9927779814       -1.7156309412
 O        -9.7721533868       11.5550710890       -0.7955577867
 C        -9.7963578815        9.7816660497       -2.6358530334
 C        -8.2881817439        9.3611449692       -2.3733822333
 C        -8.1766849417        8.4367570514       -1.0953706039
 O        -9.2271600144        7.9711550845       -0.7030773478
 C        -6.7667448142        8.1859791339       -0.5617177527
 C        -6.9138149963        7.0749077514        0.5091722130
 O        -7.6911766223        7.2377660250        1.4578188068
 C        -6.0297857319        5.8470759725        0.4571589043
 C        -6.7320287329        4.5754211222        0.9744882375
 C        -7.5841926424        4.1510811223       -0.2445866900
 O        -8.3510247526        5.0748014871       -0.7183327920
 C        -7.4846123830        2.8489170691       -1.1020759356
 C        -7.5585651840        1.5221412620       -0.2101947713
 O        -7.0656028862        1.5283826754        0.8928198794
 C        -8.3097678973        0.3292877472       -0.7424191408
 C        -7.9065138521       -1.0640635031       -0.0360938486
 C        -8.3632738197       -1.3630664958        1.3985646726
 O        -9.3113267542       -0.8193766357        1.8057513918
 C        -7.6028329244       -2.3961722232        2.1328797864
 C        -7.7820108896       -3.6584239954        1.1652308349
 O        -7.1044733045       -3.9826680685        0.2461315909
 C        -9.3027315566       -4.1055962616        1.2594606688
 C        -9.9496262435       -4.6594923094       -0.0412451528
 C       -11.3612652544       -4.0211394675       -0.3327616988
 O       -11.5261465834       -2.9297188863        0.0901695297
 C       -12.6225095874       -4.8984910591       -0.7462506952
 C       -13.2433031199       -5.5725980173        0.6370039720
 O       -12.7313739606       -6.5544834758        1.0963086755
 C       -14.6240433680       -5.0845890732        1.2910924754
 C       -13.7807686193       -4.1747211200       -1.4514788444
 C       -12.0987733110       -6.1896660109       -1.6509227717
 C        -6.1337863995       -1.8672477088        2.4008071980
 C        -8.1795176712       -2.6346418136        3.5126420661
 C        -8.5212406489        2.9689658844       -2.1856246061
 C        -6.0600662496        2.7492921406       -1.7805939088
 C        -5.8059531908        8.0591505507       -1.7741183911
 C        -6.1713249831        9.3697193721        0.2773054931
 C       -12.1737482948       11.0521562798       -3.4799502914
 C       -12.2234919216       12.6932826693       -1.3910206466
 C       -12.6342204811        5.8584464796       -1.0988844384
 C       -14.9274940787        6.5292126175       -0.0019740161
 H       -14.7882976448        5.7215559065        2.3913135609
 H       -13.7081856469        4.5747473942        3.3594091643
 H       -14.4043661688        3.9687358093        1.9498115221
 H       -13.4757295158        9.1334253860        2.0370988129
 H       -14.2304308655        9.0468672045        0.3735261389
 H       -11.5623541338       10.3415773264        0.6323000017
 H       -13.1119431534       11.2150425766        0.7534137133
 H        -9.7393056180       10.1965236710       -3.5976482425
 H       -10.4898064233        8.9653770056       -2.4106076975
 H        -7.7039926534       10.3145450172       -2.4491287433
 H        -7.9998583375        8.7016169228       -3.2196643590
 H        -5.2070018190        6.1475076232        1.1671923663
 H        -5.4632471838        5.6077349152       -0.3954954779
 H        -7.2344761780        4.7806592918        1.8896600797
 H        -5.9487781146        3.8230193255        1.1756013516
 H        -8.1086401045        0.1772088211       -1.8285034612
 H        -9.3452409793        0.6019288828       -0.6719750448
 H        -6.7905358274       -1.0905733177       -0.0031922404
 H        -8.3303853138       -1.8665051338       -0.6709086883
 H        -9.9248864770       -3.1170226467        1.5359003210
 H        -9.4646928283       -4.8153166064        2.0113888556
 H       -10.1791266731       -5.7207070533        0.0965861764
 H        -9.2515278524       -4.5974410232       -0.9202137995
 H       -14.5077680762       -5.3604528613        2.3805005262
 H       -15.4547272683       -5.6126765450        0.7850670631
 H       -14.7803934781       -4.0740477832        1.1722340651
 H       -13.4414512565       -3.1925347216       -1.9285083538
 H       -14.6429938492       -3.9057242004       -0.8263022174
 H       -14.1260672439       -4.7201412817       -2.4479658562
 H       -11.1160923854       -6.5789614681       -1.3482532641
 H       -12.1538367705       -6.0237362232       -2.6467956716
 H       -12.8555626331       -6.9371808470       -1.5592898345
 H        -6.1672891373       -1.2445902802        3.3392942178
 H        -5.7237245884       -1.2599080881        1.5733207216
 H        -5.4117085954       -2.7061349743        2.3946955204
 H        -9.0131142436       -1.8789317277        3.7120514549
 H        -7.4119601884       -2.3694189192        4.3258918317
 H        -8.4490255094       -3.7419533172        3.5948505425
 H        -8.7132627655        2.1657330275       -2.8470540522
 H        -8.2980216298        3.6055357975       -2.9446268005
 H        -9.5163796746        3.1825420884       -1.7897303061
 H        -5.1641847504        2.9754586280       -1.2247970058
 H        -6.1298807661        3.3285840753       -2.7212197453
 H        -5.8791851784        1.7962368491       -2.1465753703
 H        -4.7192814376        8.1725170398       -1.4231547061
 H        -5.9094446520        8.9694462279       -2.3885050578
 H        -6.1071274042        7.3147692346       -2.4838087968
 H        -5.3023158842        8.9787812954        0.8329318760
 H        -6.9001045396        9.5372705252        1.0952042417
 H        -5.9331753597       10.3064209179       -0.3079626040
 H       -13.1872442129       11.4590386193       -3.8098572846
 H       -12.3097430448       10.0039214047       -3.5659291633
 H       -11.3642385141       11.4052416993       -4.0748467860
 H       -11.6366043202       13.4869470118       -2.0197893941
 H       -11.8131040338       12.6203056270       -0.3590795821
 H       -13.3482302483       12.7344583167       -1.5118946660
 H       -13.0577851869        6.3098478251       -1.9616373815
 H       -12.6902351991        4.7402690136       -1.2509864559
 H       -11.5688409914        5.9673169626       -1.0541033968
 H       -15.2897381159        7.0696297031        0.8516908490
 H       -15.4341549186        5.5543027878       -0.2075873241
 H       -14.9794205916        7.1526785267       -0.8433202113
 Na       -9.8621217098        6.2480923433        0.8918846958
