117

 C       -14.1883234492        4.5056520506        2.0835171179
 C       -12.9919168551        5.3504626965        1.3649886724
 O       -11.8214022917        5.1944180337        1.6753713407
 C       -13.3067289165        6.4085985845        0.2948094670
 C       -12.7394061398        7.7483301281        1.0044324514
 O       -11.4992400745        7.8868596644        1.3140725964
 C       -13.5056552029        9.1528156350        1.1343522735
 C       -12.4829313113       10.1718189967        0.3118575559
 C       -12.6741873300       10.3097466662       -1.2631016155
 O       -13.2208738167        9.4211204733       -1.8998693990
 C       -11.7662169299       11.3781777281       -1.9838957275
 C       -10.2511404985       10.8658237162       -1.8565079677
 O        -9.4525913474       11.3423108914       -1.0261407085
 C        -9.5709499440        9.9336315858       -2.9601278263
 C        -8.2072788726        9.4861433104       -2.5451554900
 C        -8.1419382146        8.5841865261       -1.3942236004
 O        -9.1144056141        8.0707739206       -0.9499050150
 C        -6.6390629699        8.1490702086       -0.7820404941
 C        -6.7296617329        7.0757483309        0.3068914136
 O        -7.5878269278        7.1007236869        1.1513774465
 C        -5.7766374494        5.8993803004        0.4612782225
 C        -6.5405890597        4.5551135855        0.6275563809
 C        -7.6464075377        4.1695727904       -0.3593864922
 O        -8.5797054978        4.8363331698       -0.6044417061
 C        -7.5029806905        2.8301834885       -1.1011550106
 C        -7.7052157701        1.6204974600       -0.0499405133
 O        -7.3462085306        1.6815259498        1.0911553279
 C        -8.3287798108        0.3218724384       -0.6189154743
 C        -7.9570349356       -0.9123090446        0.1481339150
 C        -8.3966751416       -1.2129553197        1.6006677062
 O        -9.3009016675       -0.5944814100        2.0655967821
 C        -7.7507776821       -2.3390075053        2.3441268484
 C        -8.0412002543       -3.5033627050        1.3530300061
 O        -7.1612593240       -3.9963219535        0.6492827120
 C        -9.4200895788       -4.0955354442        1.4870974396
 C       -10.1759883686       -4.7045607553        0.2265612795
 C       -11.5430653918       -4.1461196944       -0.1877617403
 O       -11.8316401839       -2.9533022925       -0.1804967491
 C       -12.6319362290       -5.1268818296       -0.6303135409
 C       -13.3499799067       -5.7659941504        0.6590035636
 O       -12.8786529425       -6.8419006161        1.0563256473
 C       -14.3845682704       -4.9286559293        1.3523775305
 C       -13.6362362704       -4.3222199806       -1.5210419651
 C       -12.0866884616       -6.2264329792       -1.5004688678
 C        -6.2661864092       -2.1691209290        2.4925420160
 C        -8.2880844168       -2.7625446789        3.7260462490
 C        -8.5112141748        2.6558887629       -2.3036803368
 C        -6.0364252844        2.7791486022       -1.6163385929
 C        -5.6606593733        7.7614074517       -1.8710404394
 C        -6.3213213931        9.5034960450       -0.0688957019
 C       -12.2182111815       11.3564288944       -3.4618481127
 C       -11.8967858482       12.8134861313       -1.4790979398
 C       -12.5851132311        5.9533891241       -1.0693299175
 C       -14.8505330170        6.6840376320        0.0734024825
 H       -14.5838451955        4.8780353182        2.9722470361
 H       -13.7830020503        3.4832432890        2.1843068673
 H       -14.9929200790        4.2884610209        1.2618888722
 H       -13.5505254077        9.4869004954        2.1918279841
 H       -14.4336689181        9.2413625672        0.6009279939
 H       -11.3974407107        9.7586896417        0.5457818384
 H       -12.6416979731       11.1777622929        0.7019219183
 H        -9.3429302454       10.6455688241       -3.8279213683
 H       -10.1920786413        9.0348081301       -3.1754679168
 H        -7.7849898192       10.4443821026       -2.2940402529
 H        -7.6219370122        9.0445268848       -3.3636136950
 H        -5.1137183129        6.1024553448        1.3142062163
 H        -5.0152335861        5.8103492418       -0.3519496777
 H        -7.0538186273        4.8043070539        1.5740929660
 H        -5.8790898898        3.7015314840        0.8114499782
 H        -7.8902611218        0.1978102467       -1.6065348671
 H        -9.3982214351        0.2467613603       -0.9175741845
 H        -6.8831135281       -1.0083919203        0.1818603570
 H        -8.4319776375       -1.6356530105       -0.4971228360
 H        -9.9753682717       -3.4410794927        2.0319967561
 H        -9.2637940610       -5.0620275629        2.0964625650
 H       -10.2398133806       -5.8067572158        0.2788435300
 H        -9.5334733389       -4.5140811303       -0.6149857479
 H       -14.5250619535       -5.2509762969        2.3539143141
 H       -15.2799180518       -4.9071599590        0.7428956395
 H       -13.9191818283       -3.8445823994        1.3242077745
 H       -13.2649727628       -4.0225890398       -2.4644707056
 H       -13.9976383521       -3.4431260534       -1.0272551401
 H       -14.6040076657       -4.8285599305       -1.5760078301
 H       -11.0426287200       -6.4101625797       -1.2378533427
 H       -12.1991072742       -5.9524768133       -2.6064030725
 H       -12.6893647030       -7.1267388837       -1.4688315098
 H        -6.0276862235       -1.2519302174        3.0160752025
 H        -5.6832136260       -2.3434139981        1.6172590507
 H        -5.9403846118       -2.9609289488        3.1699470265
 H        -9.3353841940       -2.7204168565        3.7394851561
 H        -7.9675903003       -2.1361044820        4.5368146702
 H        -7.8902032244       -3.6475898817        3.8496198231
 H        -7.9585218368        2.3689630139       -3.1811713720
 H        -9.0090639552        3.4362425474       -2.8761459505
 H        -9.2863891387        1.8990266746       -2.1409837048
 H        -5.3812769298        2.6468839172       -0.7422716674
 H        -5.6754066029        3.5438675316       -2.2678660150
 H        -5.7776209763        1.7542757057       -2.1652417839
 H        -4.6731209654        7.4148678556       -1.4790292435
 H        -5.4531857476        8.5939125520       -2.5605106408
 H        -6.2012146645        7.0430392271       -2.5160415324
 H        -5.3470973801        9.6104114913        0.4036456950
 H        -7.1037525561        9.7856103658        0.6826264555
 H        -6.5015783230       10.1944575121       -0.8966538879
 H       -13.2614903919       11.2331312485       -3.3579938603
 H       -11.8923050089       10.4442143714       -4.0701785491
 H       -11.9885297230       12.3470658415       -3.9378550061
 H       -10.9362264890       13.2256182193       -1.3812154122
 H       -12.3971428626       12.6208823927       -0.4892270913
 H       -12.5319428404       13.3232749151       -2.1506847741
 H       -12.4442119924        6.8464383957       -1.7865399399
 H       -13.0751673442        5.1908058609       -1.6500775432
 H       -11.6213765821        5.4136763986       -0.8299698392
 H       -15.2268149499        6.7608278910        1.1209777570
 H       -15.2998872727        5.8165974776       -0.3498537018
 H       -14.9959795569        7.6321522741       -0.5346214267
 Na       -9.5805417518        6.4275994643        0.9609947736
