117

 C       -14.0422686879        4.3473908632        1.8294343296
 C       -12.9891624783        5.3205463633        1.3089393463
 O       -11.8797846835        5.1259329807        1.7757042399
 C       -13.2782088939        6.5791384979        0.3619292222
 C       -12.6243965900        7.8293283970        0.8965125718
 O       -11.5850116268        7.8326576302        1.4907173006
 C       -13.3982911987        9.2409800893        1.0467644774
 C       -12.5853311366       10.3195756906        0.2129230382
 C       -12.5700596915       10.2559036696       -1.3325497955
 O       -13.1878379735        9.4977829079       -1.9929500168
 C       -11.7099608773       11.4055851312       -2.0307815431
 C       -10.1295489639       10.9654349351       -2.0828423705
 O        -9.4800915704       11.1794668141       -1.1014109196
 C        -9.5237489248        9.9453613427       -3.1410490743
 C        -8.0502827550        9.6114092078       -2.7146035558
 C        -8.1121803483        8.3936859440       -1.5680784824
 O        -9.0966109471        8.0807667485       -1.0464743853
 C        -6.6691465653        8.1484442296       -0.9439397218
 C        -6.7345140668        7.1108421003        0.2844049816
 O        -7.5029090033        7.1604697889        1.2944252810
 C        -5.8021550207        5.8330917460        0.2215314166
 C        -6.5486524978        4.6082239512        0.6476599993
 C        -7.7146799380        4.1794327290       -0.4422100047
 O        -8.7916275023        4.6951459175       -0.4853812295
 C        -7.4531473641        2.6864585184       -1.0900849496
 C        -7.7398186568        1.6060007786        0.0156540085
 O        -7.4378765910        1.9137270407        1.1618218715
 C        -8.3450112942        0.3222215653       -0.5109508198
 C        -7.8556495651       -0.9225438747        0.2189386920
 C        -8.4836858583       -1.0607052906        1.7965645386
 O        -9.3212274942       -0.3158355956        2.2067221221
 C        -7.8305111074       -2.4106947041        2.4512324373
 C        -8.1962657281       -3.6402355063        1.5473117603
 O        -7.3455479695       -4.0192755163        0.8057238709
 C        -9.7051407475       -4.1667417262        1.5905198506
 C       -10.2072604143       -4.8180399771        0.2468563386
 C       -11.5401642461       -4.1883537236       -0.2583033226
 O       -11.8362982770       -3.0320624135       -0.1554682648
 C       -12.5963654457       -5.2472301808       -0.6920007124
 C       -13.2567047926       -5.7704626184        0.6509509544
 O       -13.0652768284       -6.8999073053        1.0899570520
 C       -14.2344872083       -4.8420502225        1.5121303820
 C       -13.7151417221       -4.3239977998       -1.4743786562
 C       -11.9028044530       -6.4446326023       -1.6121910360
 C        -6.2382279148       -2.4126838374        2.4457825922
 C        -8.3923353050       -2.5714756959        3.8964287875
 C        -8.3603878273        2.6565851875       -2.3085114846
 C        -6.0019497392        2.5726423967       -1.6440916826
 C        -5.5716480986        7.7458369911       -1.9621106611
 C        -6.1976145405        9.5529101657       -0.2628564954
 C       -12.2406943460       11.4239769799       -3.4849152965
 C       -11.7586316572       12.9251443819       -1.2961136412
 C       -12.5174064336        6.2283113353       -0.9165066460
 C       -14.8726875657        6.6411640541        0.1420056605
 H       -13.9951442583        4.4387217493        2.9165398591
 H       -13.7920396699        3.2781847037        1.5767640033
 H       -15.0810060738        4.4759999644        1.4234367046
 H       -13.2289708342        9.5637983437        2.0786317436
 H       -14.3640140942        9.2632567949        0.6858303339
 H       -11.5582687451       10.1934558708        0.5926024151
 H       -13.0160721326       11.3366760308        0.4587966449
 H        -9.5026281285       10.4585709570       -4.0943579906
 H        -9.9603330289        8.9476189030       -3.1628810488
 H        -7.6027244181       10.4944546053       -2.3530463349
 H        -7.5075778098        9.2239673060       -3.5667927849
 H        -4.8909140517        6.0641866864        0.9658798442
 H        -5.2930039495        5.6521103418       -0.6519322308
 H        -6.9048349459        4.8151611070        1.6873527353
 H        -5.8145253613        3.6940379382        0.6303474916
 H        -8.5252539940        0.3522435354       -1.6676052551
 H        -9.4237893931        0.3941203469       -0.2226549084
 H        -6.7707208079       -0.9069240529        0.3629014916
 H        -8.2429527316       -1.7799910545       -0.4071320051
 H       -10.2667154744       -3.1790506282        1.8476605659
 H        -9.9372199431       -4.9045809538        2.3243679674
 H       -10.3253682384       -5.9246033158        0.3211655272
 H        -9.4168576587       -4.6674861432       -0.4588170771
 H       -14.6841601118       -5.5494525900        2.2604766509
 H       -14.9461443492       -4.7194528616        0.7252048860
 H       -14.0057881626       -3.8722464910        1.9040502665
 H       -13.5247940762       -4.4169306429       -2.5377776462
 H       -13.8300498856       -3.3588847984       -1.2642089234
 H       -14.7533124101       -4.7062717673       -1.1791240352
 H       -11.0000232155       -6.7678460188       -0.9512662977
 H       -11.5555065108       -6.0695821027       -2.5603834281
 H       -12.5448698666       -7.2910925983       -1.8651753135
 H        -5.8424133110       -1.4078158607        2.7278750044
 H        -5.7783950958       -2.8068670073        1.5696530142
 H        -5.8810223496       -2.9837717735        3.3025605541
 H        -9.4152034357       -2.7191716559        3.8957452670
 H        -8.2246729049       -1.6209421060        4.3863886228
 H        -7.7375168673       -3.2383991541        4.4228291024
 H        -7.9326946306        2.6799523934       -3.3311434532
 H        -8.7892717785        3.6349940524       -2.5330486534
 H        -9.3517975475        2.0371219978       -2.3419370419
 H        -5.3781715419        2.1422110729       -0.8638285624
 H        -5.5252835182        3.4615617466       -2.0235320808
 H        -5.8896248116        1.8084879937       -2.4264128568
 H        -4.5423920889        7.7098612079       -1.3615411291
 H        -5.5103884607        8.5750397813       -2.6006133525
 H        -5.7493826200        6.9262252320       -2.5713428571
 H        -5.2779816650        9.3428599757        0.1251674370
 H        -6.8995726423        9.8728647834        0.5565684226
 H        -6.2150406325       10.3907340670       -0.9672422940
 H       -13.3556185841       11.4702515119       -3.3740219429
 H       -11.9859907135       10.5285057158       -4.0136871166
 H       -11.8963138976       12.3223763769       -3.9503978179
 H       -10.7436238933       13.0161539737       -1.1960383412
 H       -12.3116582403       12.9179890239       -0.3902394928
 H       -12.1516669826       13.5748494715       -1.9798489084
 H       -12.3608558934        7.1694177528       -1.4172746899
 H       -13.1293420314        5.6688734821       -1.6547508982
 H       -11.6668950208        5.5775237236       -0.8496101274
 H       -15.3889346919        6.9477711849        1.0755773841
 H       -15.0614581808        5.5803698611        0.0837194038
 H       -15.1680567683        7.1637292136       -0.7893645765
 Na       -9.6821287170        6.4203946415        0.9105159347
