117

 C       -13.9435118421        4.1946915296        1.6050314673
 C       -12.9194602920        5.3133857635        1.4854801465
 O       -11.7213310441        5.1626431139        1.7295802212
 C       -13.3189845310        6.5341000963        0.4682059158
 C       -12.6004963096        7.9086944055        1.1605983452
 O       -11.5252119493        7.7508384786        1.5387783208
 C       -13.2447556282        9.2539544654        0.7812163928
 C       -12.6475626750       10.5111748219        0.1629180724
 C       -12.4317539810       10.3731580540       -1.3197887632
 O       -13.0917797332        9.5287044806       -1.9508991471
 C       -11.5259666471       11.3986436163       -2.1900183858
 C       -10.0895541014       10.8407601274       -2.1002207554
 O        -9.4782741340       11.1317143319       -1.1084716794
 C        -9.6332411161        9.9998834372       -3.2352107674
 C        -8.1191141267        9.4646807906       -2.8278553635
 C        -8.0071991868        8.5620745094       -1.5541602328
 O        -9.0914535845        7.9775074358       -1.2439662676
 C        -6.5944468680        8.2183791662       -0.9406359897
 C        -6.7386286662        7.1004629971        0.1418578269
 O        -7.3412562055        7.4059232878        1.1809692876
 C        -5.9587824553        5.7596719945       -0.0213227794
 C        -6.6762497747        4.5460721640        0.6375617973
 C        -7.6648153861        3.9499993968       -0.3130689381
 O        -8.7922189247        4.5548712937       -0.3336407310
 C        -7.3945315710        2.8468098992       -1.2015325926
 C        -7.8226347463        1.7049542403        0.0231135474
 O        -7.5190415963        1.9930068693        1.1591576963
 C        -8.4611150337        0.3339729507       -0.2086903010
 C        -7.8473148593       -0.8875864874        0.5029359323
 C        -8.3458633031       -1.0965972126        1.8292056137
 O        -9.1282449885       -0.2918300242        2.3053442577
 C        -7.8864626457       -2.3530595363        2.6197391211
 C        -8.4479883184       -3.6862408323        1.6450389629
 O        -7.7633557745       -4.2781351150        0.8522584443
 C        -9.8711582535       -4.0473516242        1.6475104850
 C       -10.1351954208       -4.8767242739        0.3697736466
 C       -11.5145636934       -4.3099036045       -0.1738353011
 O       -11.6194520177       -3.0989762442       -0.0657127351
 C       -12.6317053184       -5.2871121618       -0.7143846405
 C       -13.3153414340       -5.8696102305        0.5694763508
 O       -13.1099566891       -6.9421227749        0.9988558858
 C       -14.0343271932       -4.8034297830        1.5229894931
 C       -13.7490785217       -4.7143143809       -1.5370356785
 C       -12.0639774081       -6.3892567872       -1.5312525930
 C        -6.3826256037       -2.4013497395        2.5433803606
 C        -8.5358418399       -2.2879915918        4.0762194354
 C        -8.3935553972        2.7421427699       -2.4070947528
 C        -5.9452012421        2.4132216704       -1.5596059252
 C        -5.5841921618        7.8404223067       -2.0524038308
 C        -6.0549089014        9.4863337536       -0.3103968483
 C       -12.2346283920       11.6740466522       -3.6027335328
 C       -11.5946902460       12.7143308225       -1.3015033800
 C       -12.5364105495        6.5355554978       -0.8864909913
 C       -14.7953941246        6.7140932819        0.1016127206
 H       -13.7365237113        3.6703727860        2.6573383054
 H       -13.8449819404        3.4541513565        0.8196848130
 H       -14.8578711439        4.6220763469        1.5366858187
 H       -13.6378826484        9.6875733122        1.6663560187
 H       -13.9838544866        8.9641346940       -0.0135509543
 H       -11.7793360045       10.6884934765        0.6477643434
 H       -13.3993480556       11.3178072650        0.3348570171
 H        -9.6166373225       10.6559759835       -4.0579004894
 H       -10.1604506183        9.0971810516       -3.4548811781
 H        -7.5041145476       10.3632332593       -2.6496486250
 H        -7.6787699702        8.8614234118       -3.6163315533
 H        -4.9904996704        5.9117058854        0.4517462345
 H        -5.6453379671        5.5136013815       -1.0659465232
 H        -7.0944445015        4.8911893101        1.6160939105
 H        -5.9179270717        3.7698603132        0.7955562548
 H        -8.4727042500        0.1580915675       -1.3459391018
 H        -9.5531991803        0.5325065069       -0.0821009165
 H        -6.7418106562       -0.6992220731        0.6461686564
 H        -8.0787528957       -1.8106835752       -0.0968648940
 H       -10.5641276066       -3.0837077867        1.6985266232
 H       -10.1373638351       -4.6924684091        2.4352978268
 H       -10.1579454451       -5.9320739792        0.5586105921
 H        -9.2804502789       -4.6918962895       -0.3335101772
 H       -14.4642648711       -5.3601160801        2.3731374648
 H       -14.6613912640       -4.0748973854        0.9961936822
 H       -13.2740320255       -4.2041332862        1.8458754871
 H       -13.4640786403       -4.8436793365       -2.5940893656
 H       -13.9568263021       -3.5755804917       -1.4121340961
 H       -14.7228175701       -5.0522320957       -1.2034196161
 H       -11.6801913829       -7.0288383356       -0.7771006896
 H       -11.2993315541       -6.1021641810       -2.2333484082
 H       -12.8837482683       -6.9154737062       -2.0814081658
 H        -5.9317475248       -1.4026182333        2.6915967183
 H        -6.1524404457       -2.7369066492        1.5004742233
 H        -5.7929534437       -2.9718122052        3.2865512061
 H        -9.6322493020       -2.5270976491        4.0488654726
 H        -8.4367306619       -1.2671151743        4.3719050258
 H        -7.7863043369       -2.8234113011        4.8577029955
 H        -8.1273924743        2.5878802841       -3.4666523415
 H        -8.9339554412        3.6854984419       -2.6805049956
 H        -9.2385574601        2.1750756141       -2.1075086561
 H        -5.4431746602        1.9261505038       -0.7423099926
 H        -5.2675028561        3.2239341854       -1.9107363784
 H        -5.9832180371        1.7331028092       -2.2881903223
 H        -4.6079488978        7.9275599989       -1.6658532430
 H        -5.7287782103        8.5457877133       -2.8671170882
 H        -5.6693280556        6.8073863203       -2.5176931365
 H        -5.1784455713        9.0541324303        0.2533918880
 H        -6.7752094096        9.9596799417        0.2889697250
 H        -5.8113403900       10.2181326608       -1.0350550660
 H       -13.2417444634       12.1518601455       -3.4418924257
 H       -12.3248868774       10.7366985227       -4.0462748749
 H       -11.6512993682       12.3159182775       -4.1936247891
 H       -10.5445526332       12.7045964718       -0.9378507218
 H       -12.4341730365       12.6701736421       -0.7046450806
 H       -11.7680637574       13.4636976944       -2.0855358819
 H       -12.5729455630        7.4870666841       -1.2967329095
 H       -12.9951726856        5.8813467204       -1.6396109201
 H       -11.5660475544        6.1084707401       -0.8611670691
 H       -15.3743381945        7.0787124711        0.9236569967
 H       -15.2548778146        5.7359097787       -0.2420031170
 H       -14.7535801431        7.3850360031       -0.7076055237
 Na       -9.8916812718        6.4229273264        0.8238041024
