117

 C       -13.0030923900        4.2272339193        1.0362038344
 C       -12.2671082751        5.5919063771        0.6872018233
 O       -11.0493222776        5.5637049370        0.6176919236
 C       -13.0107447347        6.9248129440        0.3179650820
 C       -12.1550526619        8.2605619220        0.5064695629
 O       -10.9554726925        8.5057896486        0.6518058534
 C       -13.2198943272        9.4841637944        0.3770783485
 C       -12.6017709817       10.8352225233       -0.0354222138
 C       -12.1329548855       10.7766678040       -1.5476747116
 O       -12.7801868081        9.9774321016       -2.2339485177
 C       -11.0389043291       11.6569134505       -2.1286165333
 C        -9.8371675183       10.7084086966       -2.4511529957
 O        -8.9645554171       10.7824950689       -1.5609166166
 C        -9.6716530703       10.0060717302       -3.6848685105
 C        -8.3301772117        9.1569949435       -3.5729163209
 C        -8.1882559034        8.3215935260       -2.2833164402
 O        -9.1286526000        7.6736845473       -1.8872644223
 C        -6.6997427358        8.2929154471       -1.5157884095
 C        -6.7180850386        7.2212221858       -0.2590356065
 O        -6.9053127464        7.6350256669        0.9037460752
 C        -5.9971235786        5.8792339858       -0.4397906446
 C        -6.5774276471        4.7874646779        0.4136958492
 C        -7.7561788187        4.0811395878       -0.2561802875
 O        -8.6891797273        4.7641171644       -0.5468668625
 C        -7.8051601706        2.5639700486       -0.7110779904
 C        -7.8632348798        1.5500090664        0.4471865375
 O        -7.2818553475        1.6737521166        1.5036558016
 C        -8.3266269817        0.1389056001        0.2771881351
 C        -7.5823282830       -0.7345727319        1.2639565451
 C        -8.4969248880       -1.0425407382        2.5750886810
 O        -9.5577404290       -0.4752367270        2.6404807133
 C        -8.3044743197       -2.3384504871        3.4443674805
 C        -8.9608242211       -3.4831674794        2.5888305753
 O        -8.2989585081       -4.4420367626        2.2790558176
 C       -10.4292665206       -3.5343065870        2.1384946538
 C       -10.9022615342       -4.8761833182        1.5457979686
 C       -11.8085516990       -4.7274971786        0.1771809724
 O       -11.5929738200       -3.6504247166       -0.4092977765
 C       -12.8011149937       -5.9418710326       -0.5120322227
 C       -13.7958189793       -6.3899744122        0.7423936682
 O       -14.2270307471       -7.5262136985        0.8641100596
 C       -14.3675300800       -5.2457736634        1.6756368023
 C       -13.6342172031       -5.2859547858       -1.8021811236
 C       -11.9272771301       -7.0885559944       -0.9287338646
 C        -6.7576814444       -2.4995665777        3.7952712960
 C        -9.2248290441       -2.2325361831        4.7226186500
 C        -9.0214305184        2.2790444156       -1.6256139617
 C        -6.4884410882        2.2892810048       -1.3852526793
 C        -5.7826390370        7.7488415177       -2.6339777555
 C        -6.1556432965        9.6750059299       -1.0641632467
 C       -11.7626262709       12.4403445071       -3.3331714120
 C       -10.5992171272       12.7433727503       -1.0777601312
 C       -13.1237619984        6.6423928278       -1.2334953188
 C       -14.4368674937        7.0190432960        0.9083448348
 H       -12.2387661051        3.5900440412        1.2472621133
 H       -13.5520792558        3.6335547720        0.2756935966
 H       -13.4470906113        4.3461258407        2.1228257844
 H       -13.6936485337        9.5960729492        1.3070413867
 H       -13.8705407060        9.0919722953       -0.4764515836
 H       -11.7913960636       11.0111722020        0.7351221593
 H       -13.2808310730       11.6912117868        0.0623694554
 H        -9.9158459824       10.6231527700       -4.5415244539
 H       -10.5085858216        9.2623521900       -3.7305585424
 H        -7.4627337638        9.8520759658       -3.5335247149
 H        -8.1503135523        8.5926268653       -4.4556941622
 H        -5.0076016655        6.0360914391       -0.1624062939
 H        -6.0805895254        5.4148452462       -1.5375647095
 H        -7.0501862396        5.1644111323        1.4126240709
 H        -5.8950948933        4.0596821763        0.7858119995
 H        -8.2348559684       -0.2006178999       -0.7724074042
 H        -9.4853720105        0.1723366251        0.2214540359
 H        -6.5603609852       -0.3682178340        1.4696666185
 H        -7.3860129749       -1.7110942730        0.8684655736
 H       -10.6570934052       -2.6101610668        1.5403313865
 H       -11.1367559943       -3.3941008277        2.9992687905
 H       -11.3353123010       -5.5209007782        2.2799377172
 H        -9.9610192041       -5.3319367776        1.1648392620
 H       -15.3813528283       -4.9408479666        1.5819690316
 H       -13.7453511522       -4.3113672807        1.5387828630
 H       -14.3306703917       -5.7134062846        2.7427531544
 H       -13.0317723018       -4.9342431411       -2.5602453739
 H       -13.9225807869       -4.4013007615       -1.3020899379
 H       -14.4116255135       -5.8664422323       -2.2280571242
 H       -11.0913364662       -7.2446648822       -0.2841023918
 H       -11.5388454328       -7.0079199370       -2.0064270852
 H       -12.6338583687       -7.9602778610       -0.8277457524
 H        -6.3291853841       -1.5299975146        3.6193176704
 H        -6.1145935384       -3.0961204162        3.1307085899
 H        -6.4416527832       -2.8402783142        4.7584359063
 H       -10.2551329674       -2.1141548226        4.5222935800
 H        -8.8442935636       -1.2481901188        5.1116197787
 H        -9.1616273865       -2.9865583294        5.3536572358
 H        -9.2889194198        1.4981221794       -2.3191399632
 H        -9.3232448315        3.3482976942       -1.8880061242
 H        -9.7947413288        2.0163583545       -0.8873206797
 H        -5.6351805998        2.5643205834       -0.7473177534
 H        -6.3444372502        2.9768022615       -2.2306706755
 H        -6.4461929583        1.1411475192       -1.6147788974
 H        -4.7601091142        7.3645114429       -2.4576057437
 H        -5.5257898213        8.5700930142       -3.2475380133
 H        -6.2377998382        7.0224596464       -3.2706475406
 H        -5.6086361973        9.6349401584       -0.0792337416
 H        -7.0050239536       10.3606990954       -1.0552292565
 H        -5.3770107130        9.9381190318       -1.7379368308
 H       -12.4972163298       13.1400355956       -2.9526982047
 H       -12.3945508254       11.6346709066       -3.8730976616
 H       -10.9882356502       12.9366014677       -4.0276356685
 H        -9.5908742506       12.8105983798       -1.2090716587
 H       -10.8950810920       12.3393685818       -0.1291404661
 H       -11.1451796094       13.5352213475       -1.3166016105
 H       -13.5659668262        7.4628355163       -1.8618936115
 H       -13.6385559697        5.7393855698       -1.4866071070
 H       -12.0954151814        6.7395135468       -1.7042932536
 H       -14.6632047507        7.0572374501        1.9955960620
 H       -14.8417804036        6.0763807518        0.5356808412
 H       -15.1200787751        7.7983823018        0.5026736376
 Na       -9.2396025704        6.7946136586        0.2223037814
