117

 C       -13.2709043669        4.7921902820        1.4376115153
 C       -12.6433198301        6.0668635005        1.0165812913
 O       -11.5274852372        6.3167714392        1.3276407806
 C       -13.4572774642        7.1524836625        0.1122252564
 C       -12.5115492560        8.3508941900       -0.3468310022
 O       -11.3967026929        8.0299955334       -0.8737064134
 C       -12.7946972080        9.9047664991       -0.1985033602
 C       -11.5083499897       10.7009394602       -0.4380565807
 C       -11.4479139514       11.0721432171       -1.9636216630
 O       -12.1621716367       10.5624043719       -2.7724794218
 C       -10.4220312977       12.2223615438       -2.3309300751
 C        -9.0198105653       11.4895216410       -2.5685943872
 O        -8.1652981437       11.6474197991       -1.7016096547
 C        -8.8849660678       10.6669766058       -3.8179923091
 C        -7.6101472448        9.8644951357       -3.8173273435
 C        -7.6071148219        8.7338893095       -2.8366240463
 O        -8.5473369699        8.3887568205       -2.0969908260
 C        -6.2187725287        7.9292942066       -2.7291205634
 C        -6.3682998689        6.6582548794       -1.8646618459
 O        -6.9480786730        6.8464738110       -0.8061618910
 C        -5.7764490666        5.2770792950       -2.0349478232
 C        -5.9776477328        4.4499064540       -0.8304821830
 C        -7.3876446032        3.8528975370       -0.7271409289
 O        -8.3949649800        4.4079079276       -0.6883756318
 C        -7.6209235722        2.1544608874       -0.5750559733
 C        -7.4378612553        1.7913876101        0.9785196062
 O        -6.5667569999        2.4460707917        1.5297640739
 C        -8.2688352339        0.6246125982        1.4133270466
 C        -7.9837988406       -0.4014782624        2.6626079307
 C        -9.2875717329       -1.2201781737        3.0177944352
 O       -10.2621646257       -1.0216848644        2.2902112704
 C        -9.5518684851       -2.1507779182        4.2131774157
 C        -9.7897967808       -3.6969341828        3.5980737859
 O        -8.9025578487       -4.5024058808        3.5281434932
 C       -11.2214267932       -3.9125164108        3.1013081585
 C       -11.3425576016       -5.2868417973        2.5063353314
 C       -12.1354863747       -5.1777610025        1.2164904539
 O       -12.4230387812       -4.1304333640        0.7158083685
 C       -12.5870164904       -6.4718095653        0.3860098083
 C       -14.1395400667       -6.6226595452        0.9893546436
 O       -14.4392070776       -7.3885706683        1.8733190569
 C       -15.3701742167       -5.9927941149        0.4021294075
 C       -12.5429993479       -6.2449717679       -1.1604177567
 C       -11.8553124873       -7.7391870641        0.8089124723
 C        -8.3323595721       -2.1732241252        5.1948285660
 C       -10.7908828692       -1.5545231816        4.9246910826
 C        -8.9676156081        1.9504721089       -1.1218383941
 C        -6.3930638153        1.2498667473       -1.1405699736
 C        -5.5658354199        7.5289288908       -4.0380048780
 C        -5.1995257406        8.9284687651       -1.8558599755
 C       -10.8422244517       12.8175180414       -3.7221931765
 C       -10.2158018059       13.3519057498       -1.2776169613
 C       -13.9749182455        6.4488081366       -1.1513748637
 C       -14.6850084050        7.7331056930        1.0594158418
 H       -13.3081370691        4.1938796588        0.5304628594
 H       -14.3185494821        4.8398762963        1.8751204102
 H       -12.6854247971        4.3033674649        2.1917763108
 H       -13.2415848876        9.8361221572        0.7799912154
 H       -13.6373206022       10.1668606891       -0.9105996161
 H       -10.5525978852       10.0139821559       -0.3853474927
 H       -11.3541765917       11.4480967246        0.3238755733
 H        -9.0330107610       11.2213451405       -4.7351121339
 H        -9.7186099715        9.9834840435       -3.6966414195
 H        -6.7366939799       10.5237159067       -3.5617976404
 H        -7.5237544598        9.4492436679       -4.8220944191
 H        -4.6603917368        5.3238599734       -2.2096489977
 H        -6.0578507215        4.8231103841       -3.0009545154
 H        -5.7075597045        5.0481129047       -0.0490905110
 H        -5.3150727145        3.6073572276       -0.8289009728
 H        -8.2509374208       -0.0142901333        0.5741838879
 H        -9.2358612232        0.9710350820        1.7038902911
 H        -7.6792201830        0.2364261603        3.5502783452
 H        -7.1095236022       -0.9521943636        2.3342241057
 H       -11.3368767401       -3.1937932382        2.4169772454
 H       -12.0251098386       -3.7915481121        3.8933516367
 H       -12.0619964742       -5.8170707230        3.1457999575
 H       -10.4552677000       -5.9813035464        2.5521225194
 H       -15.3302549365       -5.7467461390       -0.7166623398
 H       -15.5132102716       -5.0960310820        0.9270325553
 H       -16.1745348879       -6.4909582998        0.7675959860
 H       -11.5191675006       -6.6434608132       -1.4176990441
 H       -12.4167246034       -5.1416639703       -1.5932340423
 H       -13.2716980527       -6.8690088538       -1.6475242060
 H       -12.5811071303       -8.2996633512        1.5399067543
 H       -10.8917290291       -7.4305012494        1.1738819817
 H       -11.8439823820       -8.4805130065        0.0264172408
 H        -7.9733967783       -1.1220228789        5.3683469816
 H        -7.5744696910       -2.8599579875        4.8531176830
 H        -8.7537716531       -2.5167667562        6.1582917446
 H       -11.4867947562       -1.0294946106        4.1972183364
 H       -10.4625178681       -0.8985717333        5.7474364750
 H       -11.2907146800       -2.2611933830        5.5004011284
 H        -9.1603395133        0.8528597383       -1.2664992599
 H        -8.9874565500        2.3870471355       -2.0881119622
 H        -9.6585360770        2.5945650548       -0.5498664839
 H        -5.6662131960        1.3161745112       -0.3134665730
 H        -6.0026245036        1.3266181699       -2.1556968088
 H        -6.7972421867        0.3001121220       -1.0586699748
 H        -4.7034816863        7.0120098477       -3.9772123111
 H        -5.3791748229        8.4800788904       -4.6816972002
 H        -6.0267127705        6.7916298100       -4.7899764367
 H        -4.2254372181        8.9243412822       -2.2208611721
 H        -5.3569716198        8.4861927546       -0.8668646582
 H        -5.5073191840        9.9657477614       -1.8594876821
 H       -11.4818493870       13.7335131220       -3.6763633355
 H       -11.2653438559       12.0403322549       -4.2361890951
 H       -10.0729175699       13.1335400096       -4.3696139232
 H       -11.1302459716       13.7594688831       -0.6857613196
 H        -9.7558062726       14.4039865542       -1.4971137051
 H        -9.6201941250       12.9518357843       -0.4795917563
 H       -14.2958953031        7.1617626818       -1.8984677589
 H       -14.8137072598        5.7731910180       -0.8936519452
 H       -13.3902102882        5.7937263542       -1.6771398283
 H       -14.4505114077        7.4595027524        2.1024717649
 H       -15.5864755382        7.2376456300        0.7421537006
 H       -14.9732092768        8.8150800176        1.0276460221
 Na       -9.2876154114        6.6082102713       -0.3830827530
