117

 C       -13.2263225930        4.8465087975        1.5411053608
 C       -12.5524086276        6.1530360849        0.9667543658
 O       -11.3924114694        6.2925499860        1.2052924247
 C       -13.4944438303        7.1647659641        0.0895490899
 C       -12.4988232826        8.3223427773       -0.4483757539
 O       -11.4814843867        8.0468675182       -1.0089102190
 C       -12.6643976874        9.9195278220       -0.1819540964
 C       -11.3969400873       10.7015344968       -0.4928158256
 C       -11.2653038208       11.1378735967       -1.9430664424
 O       -12.0796541394       10.5878423778       -2.6921415177
 C       -10.2908423920       12.3455938994       -2.4549910947
 C        -8.8834339302       11.6443834779       -2.5792484016
 O        -7.9921965363       11.6220196663       -1.7527074021
 C        -8.8403698422       10.7346063446       -3.8177121029
 C        -7.5454257822        9.8652730130       -3.9687339561
 C        -7.4455498369        8.6829914534       -2.9222760629
 O        -8.4495360927        8.5110391591       -2.1936306909
 C        -6.1457386374        7.9100031775       -2.7508875213
 C        -6.4459635603        6.6258148329       -1.8418976761
 O        -6.9574150026        6.7982674956       -0.7609473743
 C        -5.8161267417        5.2046815181       -2.1735660903
 C        -5.9836185392        4.3967254752       -0.8211953902
 C        -7.3159942149        3.8041683104       -0.6727414364
 O        -8.3839179239        4.4428839012       -0.6948893837
 C        -7.5793077103        2.1600870911       -0.6343820322
 C        -7.4963754815        1.7332221490        0.8997610592
 O        -6.7492175738        2.3429817605        1.6647342773
 C        -8.4951232167        0.6187451221        1.4374282163
 C        -8.0038418515       -0.3977199948        2.6835174841
 C        -9.3294815299       -1.1911907631        3.0339536639
 O       -10.3216207512       -0.9790867607        2.3218769188
 C        -9.5695462205       -2.1630573093        4.3225770657
 C        -9.8144632755       -3.5685298955        3.6512675843
 O        -8.8902550487       -4.3411814466        3.5541367191
 C       -11.2282752843       -3.9514992446        3.2174959039
 C       -11.4237664552       -5.3081899520        2.5781187885
 C       -12.2064092974       -5.1759594217        1.2913596876
 O       -12.4273171247       -4.0992999199        0.7639911951
 C       -12.7000503723       -6.5506075262        0.5720846677
 C       -14.2796027128       -6.6811846729        0.9526517211
 O       -14.3651968399       -7.2846022116        2.0166146232
 C       -15.4822083052       -6.0623522476        0.1286217892
 C       -12.5656937384       -6.4025944455       -0.9269707225
 C       -11.6032127823       -7.7075900252        1.0470200758
 C        -8.5425142481       -2.2223427982        5.4431337496
 C       -10.8823039784       -1.6537119902        4.9376043440
 C        -8.8991705993        1.8415732366       -1.2972676835
 C        -6.3763397319        1.4344915417       -1.2763355617
 C        -5.5898317050        7.6940679455       -4.1790582492
 C        -5.2985574000        8.8007843208       -1.8428236265
 C       -10.8263121871       12.8570659811       -3.8140745138
 C       -10.2474136081       13.4297692223       -1.3316580471
 C       -14.0592583196        6.4888535715       -1.1701758477
 C       -14.6641161732        7.6463011527        1.0227547729
 H       -13.4450545422        4.2437674592        0.7025302023
 H       -14.2450740311        5.0795642445        1.9910057960
 H       -12.6731833224        4.2336064954        2.4055325011
 H       -13.1834726005       10.0817681547        0.8218023767
 H       -13.4202330166       10.1227080080       -0.9305154126
 H       -10.4155314503       10.2353043065       -0.3295781627
 H       -11.4818688761       11.5449313519        0.3211405469
 H        -8.8500252014       11.4051074083       -4.7374502442
 H        -9.7523625519       10.1069502990       -3.8204534587
 H        -6.6892873171       10.5390885784       -3.8594894186
 H        -7.6803889811        9.5171171576       -5.0375244613
 H        -4.8288178690        5.0819596984       -2.7401423198
 H        -6.4041070850        4.7571971814       -2.8512403919
 H        -5.8507459210        5.0741310195        0.0034154326
 H        -5.2675498416        3.5459635451       -0.6678369389
 H        -8.7683456883       -0.0126098361        0.6643073540
 H        -9.2734034369        1.0968259947        2.0026524350
 H        -7.5685686908        0.2003249408        3.4335273221
 H        -7.2313217549       -1.0850330646        2.3019421975
 H       -11.4082107572       -3.2465366022        2.3518742379
 H       -11.9286007785       -3.7463441806        4.0459922430
 H       -11.9192433687       -6.1259146494        3.1552847815
 H       -10.4232479284       -5.7861647547        2.3359209922
 H       -15.1685833941       -5.9645440507       -0.8775749529
 H       -15.7830928115       -5.0773198148        0.5162688554
 H       -16.3965799764       -6.6425047907        0.2990509316
 H       -11.4810836432       -6.5344528587       -1.1905788983
 H       -12.7499908154       -5.3530099982       -1.3214008000
 H       -13.1692887044       -7.2025358032       -1.4437501749
 H       -11.9337728382       -8.0638498746        1.9872196814
 H       -10.6355339112       -7.2571889422        0.9881915691
 H       -11.8431590250       -8.5873461718        0.5111821720
 H        -8.5635063375       -1.2706409310        6.0557650961
 H        -7.5457271855       -2.5443569002        5.0760462247
 H        -8.9414184202       -3.0788899460        6.0936291177
 H       -11.4971195702       -1.4661184679        4.1829360555
 H       -10.6693514078       -0.7121873251        5.4795428407
 H       -11.2960968622       -2.2637508943        5.6514195191
 H        -9.0777613878        0.7863060455       -1.0981712634
 H        -8.9972089294        2.0620465995       -2.3878764613
 H        -9.5313978040        2.4914643835       -0.8377143214
 H        -5.5092648847        1.4659732955       -0.6800452217
 H        -6.2083114160        1.6150081217       -2.3860390588
 H        -6.7626174600        0.4613642379       -1.1680519380
 H        -4.6027624891        7.2740557126       -4.4406505441
 H        -5.8347931717        8.4374987944       -4.8794486822
 H        -6.0967825408        6.7574657136       -4.5617071742
 H        -4.2364524566        8.4054687712       -1.8005573992
 H        -5.8129403108        8.7740079143       -0.9539943279
 H        -5.1616632530        9.7931127060       -2.3182572009
 H       -11.5975526006       13.5733438270       -3.6201763745
 H       -11.0750926736       12.0951629832       -4.5080942844
 H       -10.1510424478       13.4688579130       -4.3246266240
 H       -11.0741042516       13.5038302898       -0.6567406220
 H       -10.0550453312       14.4781348134       -1.4980420346
 H        -9.4970524964       13.1049560188       -0.6707987237
 H       -14.4646898409        7.1876479217       -1.8041710073
 H       -14.7450985006        5.6677050241       -0.9738782249
 H       -13.3471421713        6.0436741732       -1.8482099957
 H       -14.4003461229        7.3806736780        2.0296068501
 H       -15.5181997630        6.9741000235        0.6974715417
 H       -15.0106945211        8.6141091369        0.9944147185
 Na       -9.3997073467        6.4029750668       -0.2803259629
