117

 C        -3.3999023041       10.0497334193        5.4985486399
 C        -4.6276809478        9.3448759073        4.6896850124
 O        -4.6863369371        9.3432433031        3.5000085310
 C        -5.7079753663        8.5600276327        5.4585525382
 C        -5.6156711141        7.0974060866        4.7662663172
 O        -4.6985251848        6.4221118495        4.9968833677
 C        -6.6845004771        6.7058984448        3.6212976291
 C        -6.4440394619        5.2188763264        3.1013035057
 C        -7.0593730596        5.0299881343        1.6801679091
 O        -8.2618169025        5.1976364720        1.5176587881
 C        -6.2391196006        4.6912454820        0.3855372879
 C        -6.0161499661        3.1082705785        0.1220389820
 O        -5.0419920572        2.7495776936       -0.4705039948
 C        -7.0266170643        2.0795740303        0.6355418704
 C        -7.2496348095        0.7093399120       -0.1540462896
 C        -8.4827448684        0.0452430909        0.2074495456
 O        -9.4840246805       -0.0399536772       -0.5056709553
 C        -8.5211452287       -0.7220320244        1.6517741971
 C        -9.2992391719        0.2465316516        2.5754973281
 O        -8.7116597903        1.0347242588        3.2390312182
 C       -10.8183081211        0.1224918164        2.6579828523
 C       -11.4031403453        1.4858445773        2.8474756179
 C       -11.2423047010        2.4158086415        1.5953565328
 O       -10.2781816490        2.3484510350        0.8557115906
 C       -12.2404452101        3.5464918511        1.3419900771
 C       -13.2667553430        3.0685214629        0.1995386687
 O       -12.9390000276        2.3271894667       -0.7111079725
 C       -14.4701645137        3.9126197721        0.1613241122
 C       -15.3264018725        3.7972909688       -1.1793103210
 C       -14.6434999355        4.7862802484       -2.2574958950
 O       -13.7761014441        5.5457360411       -1.9353407189
 C       -15.3957931246        4.7772552580       -3.7586984863
 C       -14.1849109488        4.3176416780       -4.7778089774
 O       -14.4567920548        3.5625737603       -5.7129410432
 C       -12.9061798039        5.0723305440       -4.5455641752
 C       -11.7362444378        4.2584898045       -5.2480157343
 C       -11.4129844345        2.9414149252       -4.3739026629
 O       -11.6667546668        2.9212793795       -3.2039421478
 C       -10.3420702234        1.8863296528       -4.7979272690
 C       -10.8649898960        0.5429727888       -4.1935127618
 O       -10.3219744879        0.2001921533       -3.1471345172
 C       -11.8435441977       -0.2782129933       -4.9032071980
 C       -10.0713413620        1.8499021915       -6.3517934349
 C        -9.1254442192        2.4402590232       -4.1473563867
 C       -16.5839787353        3.8135043454       -3.8261837302
 C       -15.8347590875        6.1753568247       -4.1877848344
 C       -13.0381439789        3.9710175253        2.5610871712
 C       -11.7071440166        4.8144510165        0.5266654746
 C        -9.2009050370       -2.1209951995        1.4213659788
 C        -7.0651155011       -1.0300711557        2.1376297862
 C        -7.1155446198        5.0783101514       -0.8060773824
 C        -4.9505956467        5.5787719391        0.2770803111
 C        -5.5344689450        8.3473276081        6.9967361861
 C        -7.0390384678        9.2974168654        5.1658688292
 H        -3.7115917654       10.8119940221        6.2618371605
 H        -2.7689707900       10.5067345127        4.6691906140
 H        -2.7804317158        9.3058474438        5.9273181499
 H        -6.4808600502        7.5127363412        2.8242890674
 H        -7.7101538452        6.9322703789        3.9411214164
 H        -6.8743002959        4.4412296220        3.7085186246
 H        -5.3878830899        5.0839341167        3.0672604556
 H        -7.9773550669        2.5953393839        0.9436167308
 H        -6.6452837346        1.8361886694        1.6357745953
 H        -6.2714484836        0.2178206716        0.0371700543
 H        -7.2128996727        0.8341892620       -1.2021291223
 H       -11.0579567370       -0.6727562566        3.3628836187
 H       -11.2347780894       -0.2739910202        1.7142024155
 H       -10.9321691843        2.1605717848        3.5094951591
 H       -12.5114168029        1.4894590687        3.1652629250
 H       -14.1590635230        4.9680666126        0.2131740129
 H       -15.0995500024        3.8900661810        1.0869963508
 H       -16.3734388602        3.9946327738       -1.0689618065
 H       -15.1477688595        2.8137729435       -1.4616422724
 H       -12.5414277874        5.1875043858       -3.5556348535
 H       -12.9258671356        6.0165047924       -5.0668033617
 H       -10.7387482740        4.8200311724       -5.2557060782
 H       -11.9419493022        3.9358842381       -6.3018738074
 H       -11.8221570950       -0.0366856964       -5.9779215397
 H       -12.8084353784       -0.0766153442       -4.5992294872
 H       -11.5090082385       -1.3413249952       -4.8645932824
 H        -9.4556089294        2.6453606991       -6.4903027826
 H       -10.9696126314        1.7069297377       -6.9551537186
 H        -9.4630968663        1.0064849542       -6.6805544481
 H        -9.0141694337        2.0296022607       -3.2201865609
 H        -9.2259731741        3.4908607944       -4.1360337347
 H        -8.1165928662        2.1080293887       -4.6120827029
 H       -16.2206171057        2.8347114243       -3.4976828836
 H       -17.0276784588        3.7894661332       -4.8256191440
 H       -17.4116794988        4.1110442960       -3.0696271856
 H       -16.1604827235        6.0180050323       -5.2195841696
 H       -15.1292792406        6.9605437143       -4.1822761563
 H       -16.7750036764        6.4968251221       -3.5699548694
 H       -12.3653620942        4.2394351684        3.4217338200
 H       -13.7687830215        3.1915585129        2.8158179836
 H       -13.4021636623        5.0342868277        2.4077411888
 H       -10.6977618269        5.1000067114        0.7771822888
 H       -12.4497491900        5.6358508361        0.7128404286
 H       -11.6489026914        4.6761663090       -0.5431833855
 H        -9.6960588312       -2.4192085489        2.2567789090
 H        -8.4142996794       -2.8548788518        1.1183440685
 H       -10.0440100996       -2.0595296715        0.6884143580
 H        -6.5988359033       -1.6570142267        1.3991945805
 H        -7.0608571314       -1.4660018940        3.1296177133
 H        -6.4943167712       -0.0869021426        2.2365592660
 H        -6.9553216156        6.1417577291       -1.0988749347
 H        -8.1623884639        4.9057389290       -0.5330422287
 H        -6.8749653703        4.4905221671       -1.7449813984
 H        -5.4380469522        6.5406479857        0.3087802745
 H        -4.3309002329        5.4589287176       -0.6151565215
 H        -4.3112518401        5.3935349763        1.1445580588
 H        -4.9297139916        7.4269536880        7.1599786109
 H        -6.5114735249        8.0283734194        7.2584314772
 H        -5.1270497100        9.1852742611        7.6171152889
 H        -6.9793642030        9.5896442583        4.1214708123
 H        -7.1833831160       10.1547136703        5.8433001421
 H        -7.8203974427        8.5714769094        5.1810809324
 Na      -10.7523537864        1.5675245966       -1.3882729314
