117

 C       -13.2043622994        5.5486576952        1.8184403912
 C       -12.2395018797        6.2391329310        0.8293691492
 O       -11.0727611516        5.7835818840        0.5907908429
 C       -12.9247823155        7.3425479693       -0.0358382673
 C       -11.9333932784        8.2642038282       -0.6343486915
 O       -11.0555481971        7.9266098494       -1.3664224180
 C       -11.9989085659        9.7947538011       -0.1217860665
 C       -10.7931070194       10.5752048588       -0.6253756197
 C       -10.9865373917       11.2349206438       -2.1112933537
 O       -11.7766140079       10.6275743427       -2.8278696380
 C       -10.1024570126       12.3944464519       -2.4872554113
 C        -8.6835494506       11.6463664302       -2.9122767438
 O        -7.6857779020       11.7076625958       -2.2402561752
 C        -8.6087369859       10.7083631842       -4.1779040654
 C        -7.3606531148        9.9208048573       -4.0408046755
 C        -7.5886887638        8.7370757188       -3.0710684396
 O        -8.6708665729        8.4478673792       -2.6948444451
 C        -6.3018517303        7.8460143977       -2.6876611924
 C        -6.4262029717        6.6646730955       -1.5370695616
 O        -6.8292864343        7.0217790694       -0.4366822288
 C        -6.4252444669        5.1889875880       -1.8641570084
 C        -6.4667084416        4.1869482602       -0.6489165396
 C        -7.7516210991        3.4504649097       -0.6588574440
 O        -8.8596861524        4.0881272852       -0.6485909466
 C        -7.7522341232        1.9021104246       -0.6360014048
 C        -7.8647948949        1.3850724664        0.8947927601
 O        -7.0267053824        1.7074446935        1.6451311723
 C        -8.7908805745        0.2814723228        1.2078132204
 C        -8.9372929667        0.1488157514        2.7375661594
 C       -10.1837332430       -0.6427540676        3.1139459218
 O       -11.1843083760       -0.6088775278        2.5029968928
 C       -10.0421606440       -1.5821250935        4.3597409841
 C       -10.0841650570       -3.1814332740        3.8086542203
 O        -8.9639245531       -3.6438312630        3.6820239817
 C       -11.4482879828       -3.7507413861        3.4409730796
 C       -11.3109072881       -5.1614241077        2.8700862565
 C       -12.1429123661       -5.3086421258        1.5420980175
 O       -12.8020361707       -4.3537640820        1.1302846369
 C       -12.5439736893       -6.7248985131        1.0823196014
 C       -14.1351245946       -6.8998771212        1.1847885822
 O       -14.5850295751       -6.7154139624        2.2619203430
 C       -15.1295860307       -7.2467738231        0.0436617242
 C       -12.2058559639       -6.8068347070       -0.3974019035
 C       -11.8852854233       -7.9830212349        1.7698053765
 C        -8.5732312153       -1.4489970009        5.0208309471
 C       -11.0273407944       -1.4134204054        5.4838074942
 C        -8.8157294005        1.3335228646       -1.5450617023
 C        -6.4289509356        1.2016277621       -1.0674860984
 C        -5.6995085752        7.3597615562       -4.0271003335
 C        -5.2463328122        8.7848997461       -1.8918349372
 C       -10.6720596389       13.1122465338       -3.7325515650
 C        -9.7910464964       13.4351899580       -1.3740020525
 C       -13.5328812044        6.5587825243       -1.1883883591
 C       -14.1327818846        7.9297525615        0.8068744267
 H       -14.3208780381        5.5648033262        1.4373792824
 H       -13.2750705816        6.1592326364        2.7614114970
 H       -12.8348220073        4.5887209612        2.0948823775
 H       -11.9657881717        9.6240867628        0.9888904240
 H       -13.0099797415       10.2341593018       -0.2610592720
 H        -9.9417820408        9.8309984000       -0.6477039392
 H       -10.5993426475       11.2913537588        0.1584634954
 H        -8.4465686297       11.2799213185       -5.1182273202
 H        -9.4909798878       10.0066695949       -4.2302545837
 H        -6.5525438080       10.6291592002       -3.8136934429
 H        -7.1616167132        9.4040329660       -5.0224217742
 H        -5.5200293124        5.0061261764       -2.1943982294
 H        -6.9741155785        5.0463592756       -2.8176560680
 H        -6.3115649581        4.8645389020        0.2787602595
 H        -5.6026810948        3.5598426101       -0.7626801244
 H        -8.6033188636       -0.7194816262        0.7608110797
 H        -9.7296199859        0.7287153620        0.8733986004
 H        -9.0656417784        1.0907544580        3.2237265733
 H        -8.0280670662       -0.2483292960        3.0950267093
 H       -12.0260703415       -2.9094048238        2.8628975128
 H       -11.9040933002       -3.9716275384        4.3702860593
 H       -11.8101279909       -5.9282849357        3.5367009089
 H       -10.3004819334       -5.5077889105        2.6314730271
 H       -16.1706283396       -7.4229601636        0.4761666308
 H       -14.8705076221       -8.0215629542       -0.6291574921
 H       -15.3684745071       -6.3507607330       -0.4718324686
 H       -11.1167617668       -7.0390705366       -0.5852245955
 H       -12.4533047638       -5.7812984026       -0.7722712657
 H       -12.7069298657       -7.6301574361       -0.9716846619
 H       -12.2666779491       -8.4700096447        2.6895149229
 H       -10.8528348623       -7.6371492498        1.9764958319
 H       -11.7715558200       -8.6557412465        0.9116409378
 H        -8.2079375012       -0.4253161980        4.9265293733
 H        -7.8413249991       -2.2099732724        4.6332677186
 H        -8.7529340596       -1.7923890865        6.0380617990
 H       -12.0312290468       -1.3922094868        5.1200231455
 H       -10.8295737898       -0.5019854457        5.9541456094
 H       -10.9840186677       -2.2598151204        6.0487950271
 H        -8.8996783407        0.3323735060       -1.2856745090
 H        -8.6040501204        1.4982620370       -2.6017913860
 H        -9.7714280924        1.6637217653       -1.1179549993
 H        -5.5850786627        1.6687170699       -0.5635166520
 H        -6.2060980693        1.4071267177       -2.0416906048
 H        -6.5232686812        0.1036991854       -0.8063613743
 H        -4.6913759720        7.0457568680       -3.8938612160
 H        -5.5070571476        8.2397448298       -4.6989131862
 H        -6.1041910919        6.5563412447       -4.6168760194
 H        -5.3913113110        8.6098907669       -0.8370017602
 H        -5.6003150851        9.8890191568       -2.0508620912
 H        -4.2671775680        8.6522484816       -2.2741190680
 H       -11.4391285686       13.7814416353       -3.4761990020
 H       -11.2124906132       12.4800866583       -4.4005598908
 H        -9.8910346700       13.5930226117       -4.2741469944
 H       -10.5770119726       13.5651955671       -0.7450499363
 H        -9.5645521966       14.3262658885       -1.8659002273
 H        -9.0613334325       13.3374638622       -0.6868758939
 H       -13.7398042848        7.1539826616       -2.0753064648
 H       -14.3963013962        6.0292527177       -0.9931366983
 H       -12.6941384384        5.9783068645       -1.6076899953
 H       -13.9285394594        7.8665396888        1.8700136563
 H       -14.9553183398        7.3395568223        0.6367672349
 H       -14.2423603002        8.9989854358        0.5419701381
 Na       -9.3957776316        6.4713607673       -1.1446874250
