117

 C       -12.4244969389        6.0980370144        2.0932355186
 C       -11.9236400046        6.2827515054        0.7113714354
 O       -10.9791180106        5.7649421181        0.2733831683
 C       -12.6121971970        7.3556687946       -0.2335017671
 C       -11.5292348444        8.4032162895       -0.6880759301
 O       -10.6654577791        8.0918743060       -1.5268306450
 C       -11.4637181554        9.8051249266        0.0326280283
 C       -10.4019907679       10.6866262123       -0.5616344922
 C       -10.6715875705       11.2587341355       -1.8971009630
 O       -11.7323008292       11.1208565777       -2.4659036439
 C        -9.5879898956       12.1634757568       -2.6067248037
 C        -8.3890937386       11.3202414253       -2.9478942644
 O        -7.3358874771       11.5361988321       -2.4174094289
 C        -8.6975420668       10.2126997712       -3.9548461780
 C        -7.5159363211        9.2687522053       -4.2366199859
 C        -7.4247142782        8.1136590978       -3.2887319354
 O        -8.4361073814        7.4466798383       -3.2428857303
 C        -6.0465665620        7.7175268650       -2.5191160294
 C        -6.5695928077        6.7648625933       -1.3438549921
 O        -7.1172139162        7.2908680678       -0.4170551667
 C        -6.4645199290        5.2023695253       -1.5213234464
 C        -7.3773478566        4.3716841040       -0.5728546791
 C        -8.3499525203        3.3917719265       -1.1756148095
 O        -9.2313852834        3.7975234121       -1.8996464939
 C        -8.0655036396        1.8931183019       -0.9413312010
 C        -8.3391174695        1.6352838831        0.6112445060
 O        -7.3526108028        1.9669201168        1.3121575270
 C        -9.6127943534        0.9661441587        1.2969900008
 C        -9.2723719049        0.2006498731        2.6877950343
 C       -10.5491103160       -0.1519292004        3.4212189126
 O       -11.6373805363       -0.0812091171        2.7684015868
 C       -10.4001696145       -1.2560712601        4.5881748559
 C       -10.4100139875       -2.6483768985        3.8520798516
 O        -9.3276205032       -3.1474437078        3.7214478089
 C       -11.6976082194       -3.4416853575        3.4648507552
 C       -11.4859135558       -4.9534984096        3.2015980040
 C       -12.2278842387       -5.2680521990        1.8039526894
 O       -12.7064562682       -4.5422357769        0.9898928527
 C       -12.4701647159       -6.7683938827        1.5332765676
 C       -13.9988934766       -7.0395532087        1.5521815328
 O       -14.7769568554       -6.5739370250        2.3953641455
 C       -14.5883711015       -8.1929461982        0.6938376007
 C       -11.8005774139       -7.1279555802        0.1472456095
 C       -12.0023180069       -7.9019480775        2.5043307328
 C        -9.0939471313       -1.0539871646        5.3548781790
 C       -11.5289541742       -1.3712393429        5.6969698620
 C        -9.1804041081        0.9701442887       -1.9300992143
 C        -6.5906342919        1.4368243400       -1.3717384261
 C        -5.1305913469        7.0317436387       -3.5632186435
 C        -5.3501524231        8.9197208983       -1.9186779143
 C       -10.1720430735       12.7069922723       -3.9852437072
 C        -9.2895885825       13.3477408689       -1.6754199629
 C       -13.0122030435        6.5207258569       -1.5312273737
 C       -13.7323905516        8.0761930757        0.5064249581
 H       -13.4914378737        5.8543451804        2.3091099660
 H       -12.2304870856        7.0753228011        2.5562374321
 H       -11.7633495714        5.3452237773        2.6030701922
 H       -11.1998117553        9.6543907522        1.0908348757
 H       -12.5283970082       10.2264862186        0.0370347487
 H        -9.4821907542       10.0830309697       -0.5407090705
 H       -10.1940433045       11.4370616971        0.1564537389
 H        -9.2572904118       10.5520775288       -4.8605230246
 H        -9.4348164049        9.5693436559       -3.3748747037
 H        -6.5294224860        9.8613028554       -4.2651028745
 H        -7.5214297681        8.9378560311       -5.2725375784
 H        -5.2701448994        4.9710911036       -1.3517880470
 H        -6.7591369210        4.8483909316       -2.4578569301
 H        -8.1268910273        5.0226644022       -0.0716412808
 H        -6.7554388291        3.8709124312        0.2561051806
 H        -9.9920092901        0.1366368296        0.6211319829
 H       -10.4472826857        1.6883307596        1.3519397341
 H        -8.7840974650        0.9079952084        3.2929092168
 H        -8.6748944366       -0.6381152658        2.5765038202
 H       -12.0748285133       -2.9627342617        2.5314892651
 H       -12.5411181020       -3.3385565378        4.3062641279
 H       -12.1942352625       -5.4655111360        3.8841103140
 H       -10.4889027737       -5.3921087051        3.2744428373
 H       -15.4752893704       -7.8593771588        0.2605495171
 H       -14.5842835002       -9.1775782650        1.1742823404
 H       -13.9561487649       -8.3539698881       -0.2133556421
 H       -10.6638559277       -7.1969388143        0.2455998931
 H       -12.1031028448       -6.5408929672       -0.7339479860
 H       -12.2867152524       -8.0598815965       -0.1944898553
 H       -12.7397692616       -7.8148836620        3.3375599662
 H       -10.9991302179       -7.7827347213        2.9233551071
 H       -11.8861689286       -8.8877800940        2.0482868984
 H        -9.2798478370       -0.2669253177        6.1084236487
 H        -8.4107752552       -0.7097592834        4.6192523315
 H        -8.7817057951       -1.9134221620        5.9471419609
 H       -12.4913328781       -1.1175106050        5.3515336791
 H       -11.2504001164       -0.6216419587        6.3999414112
 H       -11.5082949558       -2.2945961517        6.3219520014
 H        -8.9238999500       -0.0797785771       -2.0242861994
 H        -8.8736780858        1.3101772789       -2.8715982928
 H       -10.1430501465        1.0628986920       -1.5862784837
 H        -5.8426116688        1.4227171886       -0.5858097099
 H        -6.2217500002        2.2864996490       -2.0043574416
 H        -6.5509643430        0.5822470903       -1.9498989037
 H        -4.0533766857        7.1135481736       -3.1774127137
 H        -5.1651685972        7.3468025537       -4.5522036053
 H        -5.4999303364        6.0338746965       -3.6966433392
 H        -5.5044707707        9.7338648699       -2.6188333553
 H        -4.3601757875        8.6517251706       -1.7033970740
 H        -5.7507369382        9.2799396291       -0.9120947932
 H       -11.1179585307       13.2971991202       -3.8137951267
 H       -10.4050769196       11.9621375415       -4.6962014149
 H        -9.4434443318       13.3452765010       -4.4103598071
 H        -9.9780865311       13.4511586298       -0.9080473284
 H        -9.4133445022       14.2255047071       -2.1542647780
 H        -8.3284212993       13.3957121212       -1.2442844369
 H       -13.9212856521        6.8791666708       -1.9701600750
 H       -13.3567912332        5.5359791405       -1.1248195299
 H       -12.2293583262        6.3837519556       -2.2041173417
 H       -13.2428915676        8.5704133632        1.3231062097
 H       -14.5164422015        7.4187698344        0.9614222883
 H       -14.1990996772        8.6548237078       -0.2437933151
 Na       -9.3723611637        6.1532323063       -1.4807904176
