117

 C       -12.2761400692        6.1918863659        2.2574024919
 C       -11.7505305774        6.3942038566        0.7723413275
 O       -10.9282228050        5.6223322245        0.3769062900
 C       -12.5202776672        7.4203552562       -0.2387563108
 C       -11.4217045264        8.4915194381       -0.7125864520
 O       -10.5631818986        8.2193218331       -1.5802927817
 C       -11.3872084461        9.7432285507        0.0228886927
 C       -10.3082959912       10.7154008162       -0.5010404516
 C       -10.7404398706       11.3107340302       -1.8507145935
 O       -11.8353597940       11.1569957373       -2.4061825925
 C        -9.6249229254       12.2280716163       -2.6716321133
 C        -8.3872757592       11.1289989666       -3.0148873026
 O        -7.2683433458       11.3355450763       -2.5508580186
 C        -8.6987304995       10.0262345487       -3.9315454956
 C        -7.3694910997        9.3113038635       -4.3357266059
 C        -7.3399273010        7.9678411223       -3.4063814485
 O        -8.3598322752        7.2860265035       -3.4446677066
 C        -6.0432520746        7.6296220557       -2.5261095409
 C        -6.6615447084        6.6123138874       -1.3370228148
 O        -7.2556295282        7.1339778900       -0.3913791748
 C        -6.4357590585        5.1530466750       -1.4322619639
 C        -7.4557454133        4.4638848329       -0.5612295731
 C        -8.4147885882        3.3683316070       -1.3261829391
 O        -9.2376389462        3.7748101043       -2.1029086771
 C        -8.1655358327        1.8977823766       -0.9438644678
 C        -8.4146881698        1.5250673067        0.6307678158
 O        -7.5602303324        1.9266814213        1.3799597068
 C        -9.6502065832        1.0395824457        1.2782148946
 C        -9.2386468676        0.2644919815        2.5641776436
 C       -10.5071448077       -0.2156284486        3.2760638770
 O       -11.6570563637        0.0674243810        2.9110403676
 C       -10.4194572416       -1.1406456790        4.5787424401
 C       -10.4584730261       -2.6651614556        3.9027130599
 O        -9.3601601386       -3.1230668504        3.6152023739
 C       -11.8483647728       -3.2742111393        3.4406743564
 C       -11.5651331497       -4.7927367876        3.1038663769
 C       -12.2652681568       -5.3711868860        1.8723371958
 O       -12.5530173031       -4.5254222710        1.0111263246
 C       -12.4487588521       -6.9283160862        1.6041950338
 C       -14.0662902429       -7.1273162307        1.6757728202
 O       -14.8609337559       -6.4959508992        2.3261224484
 C       -14.5214267776       -8.3020881264        0.7671699597
 C       -11.8023422659       -7.2135213302        0.2167653791
 C       -11.7953914248       -7.8931561302        2.7511719565
 C        -9.1152509378       -0.9170622037        5.3670682407
 C       -11.6700207525       -1.0375634689        5.5861261503
 C        -9.2308612330        1.0209207508       -1.7685438622
 C        -6.8194254653        1.5378818364       -1.3069500522
 C        -4.9941452197        6.9538979335       -3.4194945950
 C        -5.4503028911        8.8352885234       -1.7661516759
 C       -10.1929084355       12.7276176132       -3.9518041364
 C        -9.0589021593       13.3236541254       -1.7048563742
 C       -12.9871148767        6.6123810717       -1.4631581776
 C       -13.7943328893        8.0922262204        0.3323689598
 H       -13.1597649871        5.4348568379        2.0218976787
 H       -12.7214170545        6.9388506086        2.8362185534
 H       -11.5922254803        5.6757109171        2.8470189384
 H       -11.4517541887        9.6277111754        1.1179080763
 H       -12.3969909790       10.0807267658       -0.2950822088
 H        -9.4053538006       10.2510361511       -0.6123433307
 H       -10.0800726648       11.4871990775        0.2864033149
 H        -9.2297877692       10.5880387208       -4.7656561784
 H        -9.4457390401        9.3107959480       -3.5209501365
 H        -6.5525752680       10.0305365020       -4.3768178300
 H        -7.3970431900        9.0695627575       -5.4038116617
 H        -5.3381046264        4.9386323883       -1.1756121822
 H        -6.6900131399        4.7788027162       -2.5034241077
 H        -8.2344011007        5.1170090134       -0.0091649799
 H        -6.8215622389        3.9562325200        0.2280426346
 H       -10.3428838288        0.3017127096        0.7489196205
 H       -10.3007563743        1.9905712786        1.3976730669
 H        -8.7272738434        0.9317131641        3.2211668354
 H        -8.5811548727       -0.5906724799        2.3145161562
 H       -12.1293182372       -2.6671971777        2.5072430516
 H       -12.6322893378       -3.1323325491        4.2188308541
 H       -11.8741995931       -5.3442924015        3.9822020709
 H       -10.5194959417       -5.0103356979        2.8735609396
 H       -15.5297646279       -8.2176985689        0.4530347762
 H       -14.2392087141       -9.1983786130        1.3943123174
 H       -13.9333716865       -8.5280234563       -0.1784791840
 H       -10.7432395079       -7.0600191450        0.2635079827
 H       -12.2043980017       -6.6136852616       -0.5038337721
 H       -12.1361692176       -8.1488904924       -0.2549426536
 H       -12.4861737766       -7.7890717610        3.5082474843
 H       -10.8346202449       -7.5608832376        3.2043356449
 H       -11.5748765984       -8.9485712872        2.4998777472
 H        -9.1265447132        0.0770785887        5.8505258206
 H        -8.3060058925       -0.9976531511        4.6214843975
 H        -9.0616566373       -1.5771051762        6.2655558449
 H       -12.6735535946       -0.8577254271        4.9555426015
 H       -11.5634378969       -0.2419881911        6.2860599264
 H       -11.7094182170       -1.9565328219        6.3179369290
 H        -9.1180763563       -0.0173357565       -1.5293628158
 H        -8.9080588583        1.0554263626       -2.8686312833
 H       -10.1965637914        1.4694052246       -1.4304014207
 H        -6.2121501985        1.7323535431       -0.4745984344
 H        -6.3911386597        2.2242003927       -2.0953569555
 H        -6.6376227195        0.4983368703       -1.6637017769
 H        -4.1044006478        6.7268907008       -2.7299219291
 H        -4.6505189858        7.5474272037       -4.2549775346
 H        -5.4678118964        6.0899248090       -3.8640316854
 H        -4.9960761679        9.6076488032       -2.4464502384
 H        -4.7885966939        8.3984908480       -1.0211490948
 H        -6.2050424567        9.3723836415       -1.1468201892
 H       -10.7543154743       13.6016417185       -3.7503676535
 H       -10.8491543181       11.9257501284       -4.4154859592
 H        -9.4286560777       13.0153128108       -4.6793622711
 H        -9.7861373624       13.6772467276       -0.9799199909
 H        -8.6284291320       14.2514099552       -2.1275193304
 H        -8.2314946819       12.7960243521       -1.1984284136
 H       -13.7812507412        7.1127782173       -1.9894531340
 H       -13.3934285289        5.6672472773       -1.1092821147
 H       -12.0748096255        6.3324891752       -2.1049565642
 H       -13.7666806863        8.1051082478        1.3971301466
 H       -14.7141207514        7.5606855675        0.0233309111
 H       -13.9034822076        9.0336495155       -0.1159604890
 Na       -9.3652593440        6.1660006656       -1.6077888946
