117

 C       -12.0078882604        6.3667363474        2.1791414873
 C       -11.6766042933        6.5262267521        0.7554865172
 O       -10.6855737429        5.8715246217        0.3169814972
 C       -12.3909696719        7.3808506154       -0.3153902141
 C       -11.3069824435        8.4543182644       -0.5985566944
 O       -10.4624661104        8.2665151188       -1.4091224850
 C       -11.3028890467        9.8478259069        0.1756392858
 C       -10.1567555701       10.8160602179       -0.3600544401
 C       -10.5852022098       11.4043842588       -1.8165404637
 O       -11.6993871300       11.3404484799       -2.2759224105
 C        -9.4850610836       12.0189626672       -2.7707060268
 C        -8.4462653387       11.0412143659       -3.1270578459
 O        -7.3640489533       11.1328243718       -2.5677938098
 C        -8.5196358085        9.9108571771       -4.2261577557
 C        -7.2771295375        8.9521364468       -4.2720090138
 C        -7.3007246153        7.7400127573       -3.5157770967
 O        -8.0736724217        6.8002656821       -3.7154972523
 C        -6.0479001057        7.4442231194       -2.3341130720
 C        -6.8118689015        6.5408139013       -1.3699274082
 O        -7.7223184214        6.9703605191       -0.6688099105
 C        -6.5490779440        4.9473824044       -1.4186730716
 C        -7.4919177986        4.2669554695       -0.3441051119
 C        -8.4269389131        3.4433267846       -1.2097929229
 O        -9.1959959410        3.9096107529       -2.0897868875
 C        -8.4768540432        1.9168815387       -0.8280345435
 C        -8.5268082915        1.6892416873        0.5901613249
 O        -7.6354322935        2.0683834909        1.3751535787
 C        -9.7151899586        1.0552765102        1.2298055784
 C        -9.3916980803        0.2237860818        2.4076307771
 C       -10.7157784041       -0.0399849518        3.1889300334
 O       -11.8253859174        0.4321508156        2.9338431610
 C       -10.6455809733       -1.0056910774        4.4361085747
 C       -10.4949326732       -2.4797315189        3.8148337836
 O        -9.3849122740       -2.9381023255        3.6204721811
 C       -11.8495970909       -3.2741534427        3.3229359625
 C       -11.7336574473       -4.7531235369        3.2296433107
 C       -12.2195842164       -5.2830267797        1.9106387501
 O       -12.4238010650       -4.5903885996        0.9848789275
 C       -12.3673349811       -6.8879552399        1.8208635326
 C       -13.9850827953       -7.2347145940        1.7661314320
 O       -14.8666995461       -6.4445465170        2.1360873495
 C       -14.4746415319       -8.5236329580        1.2019101587
 C       -11.6965996003       -7.3296265394        0.4358365970
 C       -11.6168612510       -7.5697209562        3.1739451560
 C        -9.2472401766       -0.8598903581        5.2399498549
 C       -11.8237306076       -0.5972526981        5.3166558722
 C        -9.5171262927        1.0965292087       -1.7452845505
 C        -7.0304658837        1.3630510951       -1.2954345566
 C        -4.8219457317        6.7556981766       -3.1033732479
 C        -5.7648618685        8.7546353979       -1.6111557773
 C       -10.2179509527       12.8740632787       -4.0019275973
 C        -8.7354160168       13.0469625587       -1.8639309464
 C       -12.6100772350        6.5266302475       -1.5880167768
 C       -13.7192715726        8.0329218754        0.2580375940
 H       -12.4318431219        5.4178947492        2.4422289655
 H       -12.7469330528        7.1135805213        2.4627344876
 H       -11.1526294358        6.6236048637        2.8470294395
 H       -11.1896842154        9.7256334028        1.2426023900
 H       -12.2813727363       10.3279655666        0.0255922232
 H        -9.0326025667       10.4772874124       -0.2244671182
 H       -10.1722295823       11.5541936308        0.4058740869
 H        -8.8006447666       10.1878258818       -5.1969356190
 H        -9.3780721455        9.3554613593       -3.8794754632
 H        -6.3530181925        9.5234664547       -4.1219946730
 H        -7.1167074708        8.7231136901       -5.3063850949
 H        -5.5146948678        4.6980771043       -1.1939854904
 H        -6.8204197840        4.6970584899       -2.3499135936
 H        -8.0593537071        5.0335963613        0.0599092236
 H        -6.9993613463        3.6870779846        0.4077297067
 H       -10.3679567358        0.4844128676        0.6205141157
 H       -10.4535767051        1.7504935122        1.5503803354
 H        -8.5371373381        0.7843070827        2.9529672028
 H        -9.1255920523       -0.8298977667        2.1647123282
 H       -12.2061326466       -2.9378052271        2.4174145256
 H       -12.6016422209       -3.0350754617        4.0947870788
 H       -12.3403559519       -5.1488020218        4.0696571507
 H       -10.7352179299       -5.2136003336        3.2444712363
 H       -15.4444636595       -8.6542103642        1.6666710988
 H       -13.8220135471       -9.3515998383        1.0394111254
 H       -14.7731123322       -8.2440896168        0.1991624162
 H       -10.8223617286       -6.6903670628        0.2392671243
 H       -12.3887851927       -7.1341863363       -0.3946783201
 H       -11.4426799018       -8.3306627822        0.1847860030
 H       -11.7926804437       -7.2560431943        4.2502368514
 H       -10.5644007669       -7.4517060716        3.0710297290
 H       -11.8367467874       -8.6467189815        3.1679617712
 H        -8.6868207343        0.0714131302        5.1729046766
 H        -8.6035252431       -1.7143398760        5.0938154396
 H        -9.6478749917       -0.7748765935        6.2263738058
 H       -12.6931470429       -0.9343872070        4.9170929510
 H       -11.9460333389        0.4794956716        5.5361440196
 H       -11.6072691293       -1.0224091131        6.2514555698
 H        -9.4055317183        0.0138390405       -1.3668304046
 H        -9.1309320837        1.1176111154       -2.7620374916
 H       -10.4981156410        1.5719004228       -1.5744972821
 H        -6.2065240472        2.0715812923       -0.9278038763
 H        -6.8648742849        1.0718995025       -2.3323692547
 H        -6.8294460882        0.4517394142       -0.7686476100
 H        -4.2749152730        6.0230180685       -2.4300082864
 H        -4.1352411967        7.5917341851       -3.3234008858
 H        -5.0571001848        6.3116509487       -4.1210183740
 H        -4.8558174921        9.1743819540       -2.0226107193
 H        -5.6512544590        8.6074341973       -0.5382572185
 H        -6.5295822458        9.5278422791       -1.7581169320
 H       -10.0825887149       13.9849462013       -3.6905300064
 H       -11.2267192408       12.5386262554       -4.1039222757
 H        -9.7885920097       12.8341029490       -5.0155505554
 H        -9.2928362672       14.0232623062       -2.0380267035
 H        -7.7444604655       13.3279292659       -2.2904877072
 H        -8.4543848506       12.8994806458       -0.7540041388
 H       -12.4771088195        7.2629969866       -2.4342060258
 H       -13.5969466392        5.9292073747       -1.6779383779
 H       -11.8428603804        5.7947969028       -1.5965454248
 H       -13.6047977636        8.1247475777        1.3718476726
 H       -14.6157806593        7.4212120335        0.0416006445
 H       -13.9815261287        9.0733649661       -0.1564742082
 Na       -9.5969805474        6.1184039498       -1.8649487855
