117

 C        -3.4917419634       10.1329791509        5.3268563314
 C        -4.5978760592        9.3853559083        4.5055773047
 O        -4.6903395264        9.6217917802        3.2969746934
 C        -5.7868041161        8.5733156957        5.3413616627
 C        -5.6199623411        7.2410556243        4.5977667218
 O        -4.6694921100        6.5591360231        5.0133865999
 C        -6.5352035883        6.8118905104        3.4798936189
 C        -6.4581723112        5.3619871473        3.0205519056
 C        -7.0897307192        5.0703813831        1.6328582959
 O        -8.3017161459        5.1810930874        1.4863362268
 C        -6.3411221055        4.6949589959        0.3315945532
 C        -5.9817256667        3.0972488056        0.1928695817
 O        -5.0328046047        2.7231605386       -0.4366988271
 C        -7.1489305257        2.1766688760        0.7672551981
 C        -7.2354292255        0.8757412159       -0.1099139272
 C        -8.5032115689       -0.0376469442        0.2643582947
 O        -9.5088718579       -0.1224673563       -0.3637719897
 C        -8.4565179694       -0.8507594009        1.5946940099
 C        -9.2164878570        0.2588724654        2.5838778181
 O        -8.6218025069        1.1135139272        3.2206588880
 C       -10.7505400652        0.2203742833        2.6073992622
 C       -11.4207168333        1.5391418792        2.8224633947
 C       -11.1941135831        2.5536548638        1.6064062672
 O       -10.2622141341        2.2492772996        0.8844489835
 C       -12.2713198153        3.5922881748        1.2853748303
 C       -13.2961012454        3.0818448767        0.1967792530
 O       -12.9509685922        2.2467413319       -0.6530598861
 C       -14.5750030980        3.8346474913        0.1865870320
 C       -15.2443595378        3.7627073293       -1.2287594335
 C       -14.6756926953        4.7897175036       -2.1732379923
 O       -13.7096947997        5.4283446881       -1.8719850541
 C       -15.2972995273        4.7592460122       -3.5693126037
 C       -14.1331355600        4.3589491629       -4.6401329757
 O       -14.3946074483        3.4774406925       -5.4474084867
 C       -12.8371425698        5.0544409509       -4.6757640746
 C       -11.7905667391        4.0553318875       -5.2152151824
 C       -11.3878650865        2.9585228584       -4.2724607291
 O       -11.7973067126        2.9619965482       -3.1608924087
 C       -10.3165797846        1.9860220125       -4.7882104913
 C       -10.7727992532        0.4656893349       -4.3055019161
 O       -10.4864159690        0.1013474441       -3.2054066446
 C       -11.8578678955       -0.4030015199       -5.0299205570
 C       -10.1596029722        1.7779136302       -6.3719627875
 C        -9.0246078617        2.4273382191       -4.0968461906
 C       -16.4189682359        3.7394622247       -3.7395973521
 C       -15.7603125403        6.1320143539       -4.0609383057
 C       -12.9655580232        3.9507323547        2.6335542624
 C       -11.6486605423        4.7625881172        0.5033273924
 C        -9.3159576679       -2.1311233274        1.4712160209
 C        -7.0675371955       -1.0104634673        2.2546850149
 C        -7.2745369525        4.9022302245       -0.9238136316
 C        -4.9907154381        5.5058305908        0.3249978321
 C        -5.4343974440        8.3905454450        6.8377071853
 C        -7.1709277935        9.2350590104        5.1581759141
 H        -3.9611342711       11.0041443581        5.8098314064
 H        -2.6951400828       10.3882942344        4.7132367874
 H        -3.0798678894        9.4720845616        6.0510070544
 H        -6.3706155069        7.5809326638        2.7052911442
 H        -7.5110895344        7.0528364172        3.8356304250
 H        -7.0404199292        4.6343104500        3.6227285626
 H        -5.4090360843        4.9698554472        3.0786814070
 H        -8.0701858118        2.6697963081        0.7079161574
 H        -7.0568585350        2.0639005633        1.8384946938
 H        -6.2347289955        0.4947324272       -0.1605007091
 H        -7.4629549307        1.2641659672       -1.1290600699
 H       -11.0915938122       -0.5380005881        3.4026747593
 H       -11.1858575287       -0.2481953362        1.6816809137
 H       -11.0861088192        2.1180583053        3.7029559416
 H       -12.5146340936        1.3655233003        2.9692275372
 H       -14.6547179985        4.8837457198        0.6530174537
 H       -15.3061002141        3.2994098921        0.8579766825
 H       -16.3322568225        3.7917940693       -1.1749723554
 H       -14.8976980578        2.7791018173       -1.5656407360
 H       -12.3516749288        5.2716997097       -3.7196757778
 H       -12.7130251020        5.8750381207       -5.3151630812
 H       -10.9234473723        4.6199543770       -5.4658418758
 H       -12.0314514478        3.4584668003       -6.0968308266
 H       -11.9464557176       -0.1017242763       -6.0540687264
 H       -12.8266266128       -0.1004782445       -4.6066969954
 H       -11.6391788178       -1.4279261205       -5.0532229671
 H        -9.3333697805        2.4380857344       -6.7231995924
 H       -11.1098000793        1.7405576561       -6.9182007452
 H        -9.7468223869        0.8098206108       -6.5949664432
 H        -8.9722551145        2.1219390371       -3.0187394199
 H        -8.8994993412        3.4627587538       -4.2854003788
 H        -8.1533978625        1.8095011536       -4.4692667823
 H       -16.3141656976        2.7518325497       -3.3222242421
 H       -16.6359413438        3.7206959160       -4.7698891551
 H       -17.3041445049        4.2298778980       -3.2904674622
 H       -16.3976737546        5.9807403783       -4.9750897038
 H       -14.9667342800        6.8537250925       -4.2890220939
 H       -16.4061677324        6.5723865540       -3.2475325582
 H       -12.2075130094        4.0532616510        3.4130139968
 H       -13.6781834786        3.1589500318        2.8989070163
 H       -13.2748517899        4.9784043865        2.6651817386
 H       -10.7024454627        5.0646797102        0.9202749265
 H       -12.3566778816        5.5624811536        0.4082057603
 H       -11.3453609765        4.4711785578       -0.4486413109
 H        -9.4522538848       -2.6340922200        2.4771770413
 H        -8.7368828782       -2.7904245898        0.7781078980
 H       -10.3020323827       -1.9680378623        1.1347633446
 H        -6.5931460055       -2.0104684708        2.0596367487
 H        -7.2712235828       -0.8888448728        3.3762166968
 H        -6.4012390706       -0.2664442004        1.9631621613
 H        -7.2524724863        5.9365526963       -1.2109281833
 H        -8.3671684261        4.6282280618       -0.6727753701
 H        -6.9217027576        4.2911752084       -1.7782361743
 H        -5.2275032430        6.5851147670        0.4313381675
 H        -4.3180594765        5.2663547104       -0.5646868241
 H        -4.4739523520        5.0885414427        1.1827861956
 H        -4.5548976009        7.7475674318        6.8473854506
 H        -6.2252726349        7.7802891710        7.2785709387
 H        -5.1567420389        9.3150558427        7.3648195798
 H        -7.0501620627        9.9164558094        4.3136371804
 H        -7.4820046367        9.7054844401        6.0683453949
 H        -7.9175176552        8.5385970539        4.7458051665
 Na      -10.7509675394        1.7099223233       -1.3783693254
