117

 C       -11.8398859630        6.4609064396        2.1949865143
 C       -11.4978562170        6.5758188712        0.7117691502
 O       -10.5713200424        6.0213376445        0.2949930091
 C       -12.2947760112        7.4455912725       -0.3719960651
 C       -11.2317898555        8.5961824863       -0.6225988840
 O       -10.2724640576        8.3226944958       -1.3777715932
 C       -11.2229843868        9.8514292615        0.2276141977
 C       -10.2564387945       10.7844514544       -0.4383351101
 C       -10.5194711923       11.3604749443       -1.8586604929
 O       -11.7217933248       11.3639275333       -2.1383707360
 C        -9.3706979748       12.1547306003       -2.7885211032
 C        -8.3217468830       10.9333856896       -3.1649453551
 O        -7.2612671711       10.9326785275       -2.5703311884
 C        -8.4672981178        9.8192772328       -4.3069464558
 C        -7.2539254035        8.8839675005       -4.3581455942
 C        -7.2150881395        7.5082379209       -3.5371420018
 O        -8.0087313245        6.6330634083       -3.7867727526
 C        -6.1465710831        7.4000362046       -2.3425216518
 C        -6.9272160637        6.4584502416       -1.3900313810
 O        -7.8855188173        6.9007376947       -0.8197815909
 C        -6.5804239800        5.0597148783       -1.2972780461
 C        -7.4634365291        4.2619762225       -0.3856302690
 C        -8.4328082395        3.4418481106       -1.1672950599
 O        -9.2528525383        3.8759513755       -1.9036061340
 C        -8.3970839698        1.7922952364       -0.9790311299
 C        -8.5547874243        1.6567348352        0.5808700358
 O        -7.7203254656        2.1529813873        1.3711966494
 C        -9.8990663202        1.1282298662        1.2041969155
 C        -9.5604146255        0.1334748351        2.3467850118
 C       -10.7398613459        0.0103731631        3.2167432816
 O       -11.7440636962        0.6571507614        2.7785683133
 C       -10.7725872886       -0.9155958228        4.4737710114
 C       -10.6226684323       -2.3472672336        3.8089288079
 O        -9.5029853967       -2.8541377778        3.6215758452
 C       -11.9390921079       -3.1409542889        3.3180893127
 C       -11.8137653813       -4.6659801422        3.3598935822
 C       -12.1556685288       -5.3314618991        1.9280227784
 O       -12.4190353977       -4.6110994590        0.9981139167
 C       -12.3131235252       -6.8618351152        1.8460170368
 C       -13.9600968973       -7.1673453673        1.9045305900
 O       -14.7535982797       -6.2851906890        2.1943071796
 C       -14.1809365581       -8.6774142728        1.4481894656
 C       -11.7117832306       -7.4140284131        0.6388250988
 C       -11.7590992383       -7.5586147228        3.0601536579
 C        -9.4087933497       -0.6707251201        5.2126184903
 C       -11.9305793449       -0.7669817518        5.4248246180
 C        -9.6161880534        1.2253568362       -1.8218958657
 C        -7.1096384842        1.1565805619       -1.4084442401
 C        -4.8695687390        6.7708973956       -2.9030996463
 C        -5.8368364763        8.6467499206       -1.5488957308
 C       -10.1288293526       12.7227345366       -3.9709512790
 C        -8.6163104573       13.1545627886       -1.9268396109
 C       -12.5090698566        6.6137653677       -1.6636806255
 C       -13.6858141155        7.9276748152        0.1995130914
 H       -12.1120752444        5.3106457444        2.5251919601
 H       -12.6658470191        7.0532895501        2.5460143902
 H       -11.0064611406        6.8298173328        2.7688218662
 H       -10.9305779772        9.6103431508        1.2510469423
 H       -12.2995494327       10.2747560862        0.2244450657
 H        -9.2670175096       10.3627480221       -0.3834057494
 H       -10.1353367172       11.5758222445        0.3219001349
 H        -8.6101296303       10.2961740970       -5.2844985525
 H        -9.4391069890        9.3144673861       -4.2139345249
 H        -6.3895633513        9.6042562526       -4.1597413588
 H        -7.0272690347        8.7315851673       -5.4058679066
 H        -5.5239339421        4.9992398624       -0.8267668120
 H        -6.6243043485        4.7974211479       -2.3394386820
 H        -8.0036973002        5.0145481723        0.0850716315
 H        -6.9143117394        3.6486927574        0.3103193822
 H       -10.4161133250        0.4535146676        0.5146566112
 H       -10.7115653594        1.6808240750        1.4863030803
 H        -8.9061257529        0.7416200488        2.9421094212
 H        -9.1240351211       -0.8013339547        2.1288729085
 H       -12.0864454312       -2.8944546032        2.2843445121
 H       -12.9006985069       -2.7718349481        3.8515428006
 H       -12.6874119102       -4.9129871016        3.9825090666
 H       -10.9362511601       -5.1199678850        3.8419590933
 H       -14.6762812981       -9.1768529761        2.1626644897
 H       -13.3409315029       -9.1859367707        1.0072595746
 H       -14.8818395349       -8.6415103700        0.5730111906
 H       -10.6355335908       -7.0008941754        0.4685187873
 H       -12.1749879097       -7.3761239356       -0.3350143806
 H       -11.5222466954       -8.5818075655        0.7842829607
 H       -12.0935045193       -7.1284334448        4.0082869533
 H       -10.6402006170       -7.4615874856        3.1676362688
 H       -12.1302912890       -8.6263922306        3.1555838802
 H        -8.8290542080        0.1865983537        4.9272170489
 H        -8.8169947559       -1.5535433790        5.1373074121
 H        -9.6873835469       -0.4283519666        6.2288141705
 H       -12.8297717996       -1.2656629381        5.0966603857
 H       -12.2114849780        0.1468778393        5.5346947977
 H       -11.6045107307       -1.1233510553        6.3562639349
 H        -9.6007656716        0.2048447041       -1.6911068055
 H        -9.7411154048        1.5577111548       -2.9026483572
 H       -10.3281896027        1.7718964130       -1.2932932131
 H        -6.2213324893        1.7018073993       -1.2963242955
 H        -7.1608016741        0.6674181993       -2.4168244341
 H        -6.9309273851        0.2889091333       -0.7946209923
 H        -4.4306726189        6.0639840986       -2.0670798406
 H        -4.1254803047        7.4840537196       -3.1826770242
 H        -5.1420866955        6.1217235829       -3.7051271014
 H        -4.9426051534        9.0832451918       -1.9916775161
 H        -5.5233952773        8.4167579698       -0.5717327017
 H        -6.6320792224        9.4288074161       -1.5371728401
 H        -9.9833211132       13.7727036575       -4.1392590334
 H       -11.1330576688       12.3109439056       -4.0513717137
 H        -9.6755422594       12.2936359090       -4.8482009435
 H        -9.1172882157       14.0468452604       -1.8051861701
 H        -7.6729182146       13.4007746810       -2.3271487890
 H        -8.3571670445       12.7112657209       -0.9880730222
 H       -12.0664016564        7.1018971542       -2.4852855800
 H       -13.5683827790        6.4269104316       -1.8460950221
 H       -12.1275042358        5.5996349233       -1.4715419007
 H       -13.5875017084        8.7018907888        0.9816184788
 H       -14.4163829321        7.0690344941        0.5271072178
 H       -14.1916367882        8.3970478707       -0.6238918360
 Na       -9.7427733226        6.1373178131       -1.9888508501
