117

 C       -11.3905542153        6.7834217638        2.0969441546
 C       -11.2414637533        6.6602852164        0.6282378797
 O       -10.4503320055        5.8866262933        0.0904530539
 C       -12.1185781583        7.6146433233       -0.4260051124
 C       -11.0509064645        8.6920775061       -0.8865448559
 O       -10.2326353889        8.5690075643       -1.7282740347
 C       -11.0984383971        9.9614952186        0.0760663631
 C       -10.0154544093       10.8419161937       -0.4672956808
 C       -10.3183551029       11.3807136018       -1.9127877190
 O       -11.5256224528       11.3734534041       -2.2235801311
 C        -9.2320620102       11.8995428812       -2.8786610008
 C        -8.0807705343       10.8857335349       -3.2192818005
 O        -7.1115646110       10.8805974206       -2.4875325808
 C        -8.3453374692        9.6248292304       -4.1573970958
 C        -7.0801922018        8.7959990075       -4.3804944262
 C        -7.2661143933        7.6324428217       -3.5705644416
 O        -8.1046148834        6.7833536185       -3.8342691948
 C        -6.2808727454        7.3313319916       -2.3819605957
 C        -6.9245713669        6.3530727713       -1.3595920552
 O        -7.9077390324        6.7302413292       -0.7933090257
 C        -6.2503832358        4.8637250523       -1.0992529553
 C        -7.3096983815        3.9283407126       -0.3678211709
 C        -8.4982366769        3.3332314812       -1.0842543436
 O        -9.2639258325        4.0021511885       -1.7488543941
 C        -8.6361955742        1.7636888945       -1.1507247872
 C        -8.9315527228        1.4574345659        0.4662582966
 O        -7.9695784722        1.5011810399        1.2111872671
 C       -10.1847591736        0.7271415331        0.9076720324
 C        -9.9864544911        0.1643878657        2.4010218430
 C       -11.2560438985        0.2245501593        3.3489117805
 O       -12.2521020088        0.9856472521        3.1572741894
 C       -11.0604071535       -0.8535604315        4.4946556288
 C       -10.8661467534       -2.2148935081        3.8720147880
 O        -9.7699438719       -2.7776035008        3.7537363041
 C       -12.0506071853       -2.9607640693        3.1756335571
 C       -12.1606452829       -4.4839547371        3.4173716002
 C       -12.1985457263       -5.2732461061        2.0673170084
 O       -12.0519342511       -4.7991377891        0.9913452197
 C       -12.2291900613       -6.7853989850        2.1980327598
 C       -13.7344184736       -7.2268195921        2.1440928020
 O       -14.5965291219       -6.3497702627        2.1523201356
 C       -14.2492083572       -8.6937678636        2.2471757552
 C       -11.3868546295       -7.2401940611        0.9774251986
 C       -11.4577352289       -7.2902146575        3.4315510423
 C        -9.8318488253       -0.5821642665        5.3046683521
 C       -12.3914011697       -0.6734732896        5.3916512819
 C        -9.8145437737        1.2189660083       -1.9825878466
 C        -7.3725846711        1.1412565001       -1.5414791467
 C        -4.9098230463        6.8479968150       -3.0840587102
 C        -5.8407702865        8.5935337751       -1.5155804706
 C        -9.8893503509       12.2604999263       -4.1971007320
 C        -8.5875818003       13.0499717361       -2.1992934234
 C       -12.4270567158        6.7312098248       -1.7091059237
 C       -13.3319879972        8.1280440407        0.2200982547
 H       -11.5533106046        5.7735257483        2.6967797805
 H       -12.1306196475        7.4336241701        2.3690644797
 H       -10.5030135829        7.2177453254        2.4572572948
 H       -10.9149275948        9.5175151354        1.0189953030
 H       -12.0550752147       10.4849297803        0.0550491170
 H        -8.9761688888       10.5256408787       -0.0905724229
 H       -10.0693210536       11.8298996828       -0.0003937734
 H        -9.0374809436        9.6699450329       -4.9556068691
 H        -8.9058399662        8.9972494939       -3.4773591444
 H        -6.1401501604        9.3538260989       -4.1578905888
 H        -7.0137222701        8.5417671662       -5.3934848397
 H        -5.5770790907        5.0941952921       -0.2712701860
 H        -5.8008039670        4.4992679865       -1.8714009741
 H        -7.7564199605        4.6023186418        0.3633346922
 H        -6.7372879526        3.1233669827        0.1710027890
 H       -10.5411690082       -0.0797813368        0.2370295163
 H       -11.0932536100        1.3650294122        0.8937574620
 H        -9.1304611454        0.8493858253        2.8567737064
 H        -9.5238030694       -0.8933720477        2.4115978792
 H       -11.9671295178       -2.6852067618        2.1635430913
 H       -12.9433385777       -2.3489275537        3.4833301984
 H       -13.0957463136       -4.5845964386        3.9850681385
 H       -11.4476836354       -4.7545811594        4.1989502375
 H       -13.7835032470       -9.2229723585        2.9768160807
 H       -14.2387831888       -9.1755691472        1.2359350151
 H       -15.3608935343       -8.7089579936        2.4973105481
 H       -10.3694663943       -7.1158586251        1.1828640783
 H       -11.5753590712       -6.7029392555        0.1769077902
 H       -11.4186661648       -8.2969344832        0.7719783134
 H       -12.0985434122       -7.3329743125        4.3031037369
 H       -10.6139535224       -6.7149202632        3.6528762740
 H       -11.2457576724       -8.3198638364        3.3275207858
 H        -9.9171868691        0.5374221366        5.4475304259
 H        -8.9208315961       -0.7986782759        4.7193558765
 H        -9.7592794841       -1.1658267374        6.2611552324
 H       -13.2250656177       -0.2039892082        4.7448977500
 H       -12.2628775279        0.1037533060        6.0286450783
 H       -12.8391398148       -1.5860184765        5.9201822955
 H        -9.8619871056        0.1171382345       -1.8322060161
 H        -9.5578777966        1.5827880742       -2.9893692832
 H       -10.6411931964        1.9444585744       -1.9763689331
 H        -6.4773394619        1.0139144444       -0.9257148059
 H        -7.1328551758        1.5849086519       -2.5611599201
 H        -7.5435379662        0.1367490490       -1.8328952322
 H        -4.0103349484        6.6530318669       -2.2832716296
 H        -4.6414811795        7.5955928187       -3.7521354577
 H        -5.1495981411        5.8280620582       -3.4357502451
 H        -5.4052359972        9.4191598529       -2.0754430578
 H        -5.0437597573        8.3749332285       -0.8646253465
 H        -6.7906163606        8.9840051703       -1.0270617487
 H        -9.8388420601       13.3512329219       -4.5291128008
 H       -10.8813862119       11.8337388235       -4.0731911502
 H        -9.4309986575       11.6874171964       -5.0258217887
 H        -9.3675518172       13.6805742839       -1.6446375403
 H        -8.0264088979       13.7545125195       -2.9548556845
 H        -7.7938418500       12.5824470188       -1.4287299973
 H       -11.8047166197        7.1297655809       -2.5243359299
 H       -13.5726546630        6.8189139014       -1.8350073965
 H       -12.3825153587        5.6574030711       -1.5114147047
 H       -13.1781303407        8.6883010432        1.1249150537
 H       -13.9824293335        7.2044965029        0.4031943468
 H       -13.8661795052        8.8664875969       -0.3240763456
 Na       -9.6010530313        6.1685274565       -2.2362735071
