117

 C       -10.8727173222        7.0241812896        2.1360028205
 C       -11.3244722841        6.8451340049        0.7384603472
 O       -11.0864873561        5.7917058538        0.2445022427
 C       -12.1181193553        8.0388443143        0.0536198875
 C       -10.9259126736        8.9416335741       -0.5088321757
 O        -9.8773612107        8.3491242546       -0.9557897079
 C       -10.9917627003       10.5322838071       -0.6984034694
 C        -9.7611457487       11.0845749049       -1.4569535493
 C        -9.9389341323       11.3376870017       -2.9641221492
 O       -10.9855155754       11.0344970893       -3.4766484205
 C        -8.7720693643       11.9055178189       -3.8259303750
 C        -7.4077042318       11.1539444938       -3.7178691918
 O        -6.5541332632       11.7910538885       -3.0475811448
 C        -7.2311462730        9.8294083775       -4.3204631995
 C        -6.2123390778        8.9479783884       -3.5831599485
 C        -6.8482815388        7.5881521349       -3.0357604658
 O        -7.9851540497        7.5030925821       -2.7804990937
 C        -5.8974164827        6.3602305481       -2.5198674884
 C        -6.6490016954        5.3756327182       -1.6945157417
 O        -7.3354379172        5.7241485636       -0.7913962223
 C        -6.5817324242        3.9256247102       -2.0577161760
 C        -7.2922177645        3.0005407897       -1.0021372729
 C        -8.7390487088        2.7998384924       -1.4774034989
 O        -9.3586778438        3.6446349243       -2.0792862360
 C        -9.3697415278        1.2577574887       -1.0764618147
 C        -8.9511794559        1.0741021613        0.4374723347
 O        -7.8960700827        0.4841521821        0.7020170719
 C        -9.9985590107        1.4900367098        1.5151012274
 C       -10.3911476303        0.4533266814        2.5347261527
 C       -11.8258554860        0.3061558992        2.8579943099
 O       -12.7297009926        0.5672777304        2.0199822885
 C       -12.2621524367       -0.2984704854        4.1955712959
 C       -12.1294283007       -1.9493302935        3.9974035267
 O       -11.5065290800       -2.5691382927        4.9011216522
 C       -12.6728829248       -2.4681757298        2.6675545016
 C       -13.1132429945       -3.8940628934        2.7819984055
 C       -11.8667213108       -4.9503357674        2.4008503143
 O       -10.9915723077       -4.3466330789        1.9850253339
 C       -11.7669212998       -6.5397641293        2.9251621555
 C       -13.1952649030       -7.0933373333        3.2956628130
 O       -14.1958696706       -6.5910731155        2.7695168535
 C       -13.4326848481       -8.0708105924        4.3884219916
 C       -10.9980399077       -7.4437024266        1.7726125162
 C       -10.8400345442       -6.4837616295        4.1796461157
 C       -11.4102200296        0.0197674759        5.4806107733
 C       -13.7425331592        0.0339219718        4.4540167584
 C       -10.8597658937        1.2469105365       -1.6178905285
 C        -8.4004928044        0.5022866001       -2.0299285811
 C        -5.0725554969        5.7587085018       -3.6260173925
 C        -4.7991222595        7.0089364552       -1.4429918893
 C        -9.1547943434       12.0145196616       -5.3154280857
 C        -8.5014190690       13.4910897230       -3.3334993149
 C       -12.8702003165        7.4596288841       -1.2948687957
 C       -12.9770389807        8.6865198789        1.0772024187
 H       -10.7918579259        8.1113431284        2.6132037062
 H       -10.0022880147        6.4658185825        2.2890427261
 H       -11.7624568626        6.6188172124        2.6564429319
 H       -11.0691486565       10.8898307435        0.3808386071
 H       -11.8440821169       10.8200383062       -1.2252972236
 H        -8.8774708794       10.3924328229       -1.1689669718
 H        -9.5179490422       12.0971206963       -1.1339887420
 H        -6.8407985254        9.9950951007       -5.3084524525
 H        -8.1480840446        9.3283269362       -4.4595343109
 H        -5.8073131988        9.6060746663       -2.8668302842
 H        -5.5465736923        8.5877871348       -4.3932172566
 H        -5.4815822464        3.4736436110       -2.3232687505
 H        -7.1737882761        3.7775476242       -2.9482848884
 H        -7.4769933845        3.2146064852        0.0097898348
 H        -6.7896988845        2.0818755309       -1.0492090059
 H       -10.8526583374        1.9647217701        1.0521397113
 H        -9.5015574030        2.2819693223        2.1782275785
 H        -9.7391368723        0.6016256328        3.4488229096
 H        -9.9545712913       -0.5643849057        2.1401158388
 H       -11.8975731908       -2.5086068180        1.8629139974
 H       -13.3784712756       -1.7685055810        2.3120816606
 H       -14.0820168482       -4.0399303879        2.2669969425
 H       -13.4032286842       -4.0359184477        3.8388095551
 H       -13.0037634339       -8.9740457406        4.1893847046
 H       -14.5300868720       -8.3192594264        4.4418382525
 H       -13.0575897749       -7.6383355026        5.3447816975
 H       -10.4845368429       -6.7375841464        1.1656710334
 H       -11.5888965381       -8.0222822179        1.1757683881
 H       -10.3318852568       -8.2034095756        2.1547165723
 H       -11.1155668444       -5.5537362143        4.7461305066
 H        -9.8201928391       -6.3955973396        3.9437679993
 H       -10.9897304502       -7.3369799094        4.7905709435
 H       -10.3392125650        0.2085242218        5.3821818068
 H       -11.3997489362       -0.9598541257        6.0008739297
 H       -11.8167551964        0.8043352429        6.1099265384
 H       -14.3135428363       -0.8898464025        4.7449929574
 H       -14.2322443800        0.2856203845        3.5854815370
 H       -13.8418560809        0.7885462308        5.1042640477
 H       -11.4343040563        0.2858258401       -1.4640337188
 H       -10.9018129053        1.1866484651       -2.6680048047
 H       -11.4572856982        1.8963721873       -0.9958414789
 H        -7.3016998062        0.4177749503       -1.7230300460
 H        -8.3011652192        0.9469750367       -2.9953036615
 H        -8.7300809103       -0.5062833237       -2.2316575496
 H        -4.2890514300        5.1716952097       -3.1068960021
 H        -4.7042534305        6.5731774165       -4.1472032732
 H        -5.7372456763        5.2888186109       -4.2928222606
 H        -4.4136744181        7.9655137502       -1.7574419445
 H        -4.0271297520        6.3485168500       -1.0214175344
 H        -5.3175885485        7.1624503805       -0.4610191262
 H        -9.0238244336       10.9865208016       -5.8104790535
 H        -8.6824204626       12.8211725933       -5.7820909567
 H       -10.2129511135       12.2952997644       -5.2039769081
 H        -9.4307779071       13.9634585743       -3.7445906890
 H        -7.5296572959       13.7577433529       -3.8461455141
 H        -8.4521868188       13.5084090352       -2.2735643375
 H       -12.8584939611        6.3570203270       -1.2023733940
 H       -12.0962112656        7.5534758044       -2.1223443695
 H       -13.7199873899        8.0443265347       -1.4909067678
 H       -13.1766819357        7.9909269179        1.8549138848
 H       -13.9505712983        8.9908227894        0.6304793014
 H       -12.6721895249        9.6362359961        1.4448822741
 Na       -9.5524650843        6.0095224442       -1.6810426860
