117

 C       -10.9458275859        6.9292643611        2.3888786304
 C       -11.3292175974        6.8111390961        0.8597577214
 O       -11.0064022135        5.8668635499        0.1787411190
 C       -12.0373481498        8.1448225618        0.1336464882
 C       -10.8440001945        9.0215537099       -0.4712997491
 O        -9.8879713189        8.4210443945       -0.8080265193
 C       -11.0000631202       10.5124528782       -0.8932481313
 C        -9.7185430777       11.1277368658       -1.5188959690
 C        -9.9453417147       11.2368130071       -3.0731506429
 O       -10.9326299512       10.8807416467       -3.6458865042
 C        -8.7783597520       12.0198092608       -3.9453412952
 C        -7.3565092283       11.2189790240       -3.5847476593
 O        -6.4080973181       11.6714660581       -3.0039605294
 C        -7.1320027273        9.7249929492       -4.2599046370
 C        -6.1477377775        8.7944414997       -3.4801853702
 C        -6.7672300406        7.5159850340       -2.9605182965
 O        -8.0029038051        7.5061940713       -2.8557924367
 C        -5.8274888916        6.4128009319       -2.5403061135
 C        -6.7615389426        5.2566663429       -1.7385053924
 O        -7.4596159875        5.6346659999       -0.8086879057
 C        -6.6422258491        3.8373864143       -2.2787064651
 C        -7.1637689174        2.8753819716       -1.1720311206
 C        -8.8199350472        2.7499543975       -1.4505186734
 O        -9.3889148800        3.6273382104       -2.1105954995
 C        -9.3532685725        1.4062954521       -1.1686403805
 C        -9.0381359985        1.0450985889        0.4234191528
 O        -7.9775230633        0.5445926274        0.6290585729
 C        -9.9938463031        1.5365857355        1.5659275346
 C       -10.2807320736        0.4005823129        2.5957545528
 C       -11.8646842519        0.2730072353        2.8559653102
 O       -12.6973553232        0.4924429678        1.9754729377
 C       -12.4041200337       -0.3290106827        4.2416748446
 C       -12.2323144297       -1.8607733202        4.0013805543
 O       -11.8498733387       -2.6105638908        4.8285564249
 C       -12.7546359745       -2.5322765473        2.6400400186
 C       -13.0626247662       -4.0337522955        2.8523851638
 C       -11.8708442695       -4.8436179898        2.5969104228
 O       -10.8630650204       -4.4037392085        2.0297075057
 C       -11.7543872696       -6.3413392029        3.0060332488
 C       -13.1792131996       -6.9037156639        3.3498009809
 O       -14.1443349801       -6.4583346361        2.8031804981
 C       -13.2381861149       -7.8979416249        4.5363899820
 C       -11.0486458455       -7.3132886020        1.9764478930
 C       -10.7936840072       -6.3801001611        4.2035574844
 C       -11.6191282546        0.1778560077        5.3908892564
 C       -13.9154326861       -0.0105423573        4.3499856822
 C       -10.8241926503        1.1468577132       -1.4823523860
 C        -8.5746803833        0.4284100223       -2.1876526549
 C        -5.0047745380        5.7477762321       -3.7704456527
 C        -4.8061691606        6.8583499097       -1.4621840949
 C        -9.0574637986       11.9056637598       -5.4472838543
 C        -8.5231447798       13.4475324312       -3.4499504597
 C       -12.7438234584        7.5823389535       -1.1234880099
 C       -13.0510664669        8.8427730628        1.0220061964
 H       -10.2956883794        7.7449004601        2.4920888560
 H       -10.3777812061        5.9543740128        2.7926205171
 H       -11.8187718694        7.2400786956        2.9795171435
 H       -11.2225468312       11.0747782580        0.0650234160
 H       -11.8435472316       10.6523927821       -1.5480503784
 H        -8.8599733052       10.4711771110       -1.2630067628
 H        -9.5687674141       12.1089744556       -1.1628749363
 H        -6.7610016076        9.8895180491       -5.2418066707
 H        -8.0180839191        9.1391413616       -4.3528682417
 H        -6.0539004234        9.4616185115       -2.6239931340
 H        -5.2164725555        8.5571914049       -3.9906881013
 H        -5.4853396470        3.7521820256       -2.2079828093
 H        -6.9493694000        3.7134962675       -3.3334393357
 H        -7.0588378892        3.3355410271       -0.2624517014
 H        -6.6394768928        1.9462875340       -1.1022770009
 H       -10.9342331799        1.9555121792        1.2735909457
 H        -9.3041709947        2.3505563431        1.9667672348
 H        -9.6650354529        0.3947816660        3.4389391006
 H        -9.9811121063       -0.4669036659        2.0431452578
 H       -12.0340996102       -2.6904940369        1.8926143220
 H       -13.5577956963       -1.9343566655        2.1538762572
 H       -13.6889008828       -4.3766821008        2.0126546015
 H       -13.6278265689       -4.3349463216        3.7056012582
 H       -12.4470430158       -8.6424512629        4.4033874557
 H       -14.1447899642       -8.4099848717        4.5306608889
 H       -13.0678596234       -7.3983197146        5.4585882581
 H       -10.7599463322       -6.8270756098        1.0642392474
 H       -11.5628099660       -8.3051219334        1.8404584377
 H       -10.1399377867       -7.7596317677        2.3902233988
 H       -11.2136859658       -5.7291823429        4.9070809765
 H        -9.8595468103       -5.9429926050        3.9416614848
 H       -10.7201544982       -7.3542087096        4.6559471550
 H       -10.5171511049       -0.0667930110        5.3278633773
 H       -11.8552728188       -0.2576674025        6.3477643207
 H       -11.7202719180        1.2772106247        5.3663560383
 H       -14.4562582424       -0.5414508539        4.9794347959
 H       -14.3089113195       -0.3787279009        3.3910944842
 H       -14.1139165147        1.0224207481        4.4825642775
 H       -11.1217590123        0.2495460021       -1.1065724734
 H       -11.0837632014        0.8449978412       -2.5261465120
 H       -11.4699902305        1.8009875654       -0.9461273572
 H        -7.8379259364       -0.1514237327       -1.6819259602
 H        -7.9392941966        0.7699679220       -3.0816087018
 H        -9.3254805955       -0.2644809657       -2.5740837254
 H        -4.2140998300        5.3052229971       -3.4274935896
 H        -4.7678437917        6.4852225152       -4.6293455899
 H        -5.7759580715        5.1392907069       -4.1653590101
 H        -4.1344683216        7.7144359865       -1.6548620103
 H        -4.2316045187        6.0654950062       -1.1313339781
 H        -5.3198533978        7.0197337260       -0.4701403274
 H        -8.4729508355       11.0185335878       -5.7750330580
 H        -8.9367640152       12.8582044992       -6.0164646943
 H       -10.1486916451       11.5987280143       -5.4316439411
 H        -9.1431026221       14.0380419397       -4.0299729925
 H        -7.5150153249       13.5542345350       -3.6423498141
 H        -8.6850809465       13.4968098240       -2.4507276805
 H       -12.8260568907        6.5635993253       -1.0046639160
 H       -12.0720021360        7.6778826007       -1.9871230620
 H       -13.6453476313        8.2671633549       -1.2707858150
 H       -13.6097833214        8.1588721802        1.6732587866
 H       -13.8141595324        9.4621921809        0.3986956613
 H       -12.6168048347        9.6447461873        1.5763752994
 Na       -9.4797896456        6.0808688728       -1.5609702508
