117

 C       -11.1008494497        6.9315628106        2.4583556608
 C       -11.3166617468        7.0311167894        0.9515090425
 O       -10.9568614646        6.0175804876        0.2305180618
 C       -11.9520288232        8.1450454874        0.1729188855
 C       -10.7090986167        9.0188289026       -0.4801316101
 O        -9.6746476867        8.5080137208       -0.7243720159
 C       -11.0607780317       10.4185550482       -0.9393951902
 C        -9.8067273905       11.1340842950       -1.6502037002
 C        -9.8555447614       11.2382815127       -3.1534934602
 O       -10.7795408990       10.7218881273       -3.7814816616
 C        -8.5841315383       11.8301037860       -3.9822028017
 C        -7.2929484334       11.1372040062       -3.6239025509
 O        -6.4259740887       11.5612325057       -2.9287527266
 C        -7.0991880166        9.7263826841       -4.1635271085
 C        -6.0919744559        8.8684960185       -3.3478590277
 C        -6.7642788093        7.5736343007       -2.8636544062
 O        -7.9919278860        7.3969950807       -2.9797973989
 C        -5.8554374194        6.3233634422       -2.4935146803
 C        -6.6872548786        5.1803487854       -1.9153091356
 O        -7.3847834840        5.4941938013       -0.9478160125
 C        -6.5605903242        3.7753279086       -2.2808400879
 C        -7.2981814862        2.8496055254       -1.3509615146
 C        -8.8301171009        2.7159278998       -1.6075721951
 O        -9.4559217055        3.6736913121       -1.9733382192
 C        -9.3945221712        1.2828619777       -1.2021287449
 C        -9.0402911945        1.0615789766        0.3015372018
 O        -8.0112199369        0.5346116308        0.6278841991
 C        -9.9871733709        1.4989197312        1.4036192096
 C       -10.3652809745        0.3299343289        2.5621857603
 C       -11.8663429307        0.2703924723        2.7613694127
 O       -12.5201968535        0.5382843553        1.8174916789
 C       -12.4790531795       -0.3305186267        4.0541706818
 C       -12.4840546181       -2.0112921117        4.0227098971
 O       -12.0821997011       -2.6509910118        4.9260153673
 C       -12.8777172642       -2.4946179442        2.6701038410
 C       -12.9924944717       -4.0746850145        2.7295173443
 C       -11.7132168680       -4.8013354486        2.5741167712
 O       -10.6521303029       -4.3881697986        2.0004042325
 C       -11.6616583785       -6.2128504871        3.2392417961
 C       -13.1289772649       -6.7398878075        3.5256830883
 O       -14.1152797645       -6.4912510123        2.8427803839
 C       -13.1501468270       -7.7890445834        4.6541559775
 C       -11.2408062053       -7.1379122689        2.0600588296
 C       -10.7052904699       -6.2068996991        4.4771590439
 C       -11.8159338008        0.3146037527        5.3717987968
 C       -14.0399874885       -0.0517148993        4.2272107838
 C       -10.9529830724        1.2065378802       -1.2902916609
 C        -8.7487281754        0.2343103093       -2.1153501703
 C        -5.1212789650        5.8417455886       -3.8256189482
 C        -4.8349718471        6.7369369508       -1.4853283058
 C        -8.9476254333       11.7462544474       -5.5187493139
 C        -8.5663669762       13.3957932707       -3.5439947693
 C       -12.7291038904        7.5877953656       -1.0671470523
 C       -13.0000213816        9.0528359114        1.0417590325
 H       -10.0808658967        7.1143045774        2.6615649648
 H       -11.2067620405        5.8757943148        2.7189097689
 H       -11.6746382855        7.6627161261        3.0408668967
 H       -11.4746247482       11.1312769066       -0.2449643575
 H       -11.9196461357       10.2053460785       -1.6943832033
 H        -9.0796725477       10.4018728241       -1.6433388603
 H        -9.4677334875       12.0019487303       -1.0575156691
 H        -6.8226643844        9.7037478296       -5.2281772903
 H        -8.0441070154        9.1372607762       -4.0804721829
 H        -5.8154272834        9.5519794938       -2.4859150548
 H        -5.2763845763        8.5403205537       -3.9619228113
 H        -5.6281026773        3.4885414408       -2.3169986769
 H        -6.9648995560        3.8637987402       -3.3366123560
 H        -6.9904336388        3.1308804629       -0.2358083694
 H        -6.8535260009        1.8455464623       -1.4715664642
 H       -11.0367260564        1.7745777533        1.1224548357
 H        -9.4344156060        2.2965767145        1.8028169296
 H        -9.9656025200        0.6623578072        3.4683175763
 H        -9.9592787809       -0.5701269311        2.2892151691
 H       -12.2440600590       -2.1570132491        1.8531166478
 H       -13.9209681763       -2.0553809182        2.4363704233
 H       -13.8038492441       -4.5245813272        2.1677335806
 H       -13.2796199082       -4.3004332893        3.7537970871
 H       -12.1611667828       -8.3813154786        4.6207465367
 H       -13.9811560833       -8.4336588022        4.5458881052
 H       -13.1986124164       -7.3218874016        5.5833886213
 H       -11.5285095098       -6.6530124666        1.0743855617
 H       -11.5430163936       -8.2566787334        2.2315125171
 H       -10.1606927623       -7.2932666924        1.9499700061
 H       -11.2628213698       -5.9173793360        5.3355660473
 H       -10.0147978968       -5.3738081379        4.2993657387
 H       -10.2150011824       -7.1601164938        4.7188189295
 H       -11.0057974764       -0.2719972996        5.8077072360
 H       -12.4460594415        0.4629757605        6.2419858013
 H       -11.4011813368        1.2686796712        5.0143322720
 H       -14.3706241780       -0.1163365760        5.3010641251
 H       -14.7051098255       -0.8088823224        3.8122197434
 H       -14.3339656589        1.0460584422        3.9405266153
 H       -11.4526287789        0.2828233896       -1.0150404663
 H       -11.2893031010        1.2050546124       -2.3134076653
 H       -11.3811189846        2.0043946684       -0.7298065009
 H        -8.2856353323       -0.5073501185       -1.5178719490
 H        -7.8275185666        0.5390020176       -2.6688610144
 H        -9.4036692814       -0.2245221672       -2.8856755221
 H        -4.0896059444        5.2955511471       -3.5098541202
 H        -4.8145481006        6.7651232471       -4.3129921302
 H        -5.8252595149        5.3309193847       -4.5066253333
 H        -4.0921386256        7.3442356435       -2.0303962076
 H        -4.2457390365        5.9576949165       -1.0043466485
 H        -5.1656721866        7.2564493700       -0.6499244445
 H        -8.1491298130       11.2829290806       -6.0339691853
 H        -9.0223970035       12.8588623132       -5.7835609533
 H        -9.9136404455       11.2038866488       -5.7213231135
 H        -9.2042958158       13.7645543651       -4.2264012565
 H        -7.6156247450       13.7382549383       -3.6200176304
 H        -8.8968396745       13.4844828305       -2.5127905562
 H       -13.1909339017        6.6277140549       -0.8131470348
 H       -12.1277089617        7.4635302645       -1.9134623679
 H       -13.3768718454        8.4543017345       -1.1776753460
 H       -13.9954808042        8.5480985466        1.2364157122
 H       -13.2081251796        9.9485675017        0.5321693277
 H       -12.5619664315        9.4639598089        2.0283032828
 Na       -9.4435063630        6.1505648731       -1.4616610906
