117

 C       -11.3157654245        6.9698069814        2.4734612028
 C       -11.3236584292        7.0830603878        0.9768272418
 O       -10.8316179810        6.1175077472        0.3791270432
 C       -11.8490995966        8.2914624877        0.1237739256
 C       -10.7370964874        9.0509898503       -0.5588976847
 O        -9.5781963147        8.5422950659       -0.5645021017
 C       -11.0046766706       10.4106985356       -1.1118708743
 C        -9.7238020757       11.0400217736       -1.6992583809
 C        -9.7535123895       11.0375411361       -3.2842972767
 O       -10.6982750364       10.5882419851       -3.9079953319
 C        -8.6299342013       11.7958355546       -4.0153504337
 C        -7.2685477264       11.0399888987       -3.5889509877
 O        -6.4927872321       11.6220194247       -2.7860836525
 C        -7.1334863683        9.6524915095       -4.1471167939
 C        -6.1805134582        8.8342339435       -3.2571202517
 C        -6.7917422174        7.5007425863       -3.0065113325
 O        -7.9820352619        7.3435247842       -3.0015856043
 C        -5.7720440771        6.3551884352       -2.5287488859
 C        -6.6802768457        5.1792071131       -1.9274201493
 O        -7.3272119409        5.4004697371       -0.9373656675
 C        -6.4756978524        3.5847341632       -2.4128083617
 C        -7.3663823218        2.7159398875       -1.5206377217
 C        -8.8482009456        2.6501615958       -1.6548043870
 O        -9.6015649406        3.6317790803       -1.7782394091
 C        -9.5103658530        1.2757925030       -1.2128453463
 C        -9.0383220461        0.9818816752        0.4133609015
 O        -7.9239098181        0.4715259631        0.5494346503
 C       -10.0097549997        1.4580096074        1.4845066029
 C       -10.3176501636        0.3874691155        2.5060844146
 C       -11.9309939870        0.2057104934        2.6171602315
 O       -12.6130115780        0.5832229820        1.6756753058
 C       -12.5793540415       -0.3245980729        3.9910426604
 C       -12.5251022526       -1.8707497405        4.0063177895
 O       -12.2975335884       -2.5818039052        5.0381836613
 C       -12.9501337798       -2.4284461914        2.6875041051
 C       -12.9548734430       -4.0064097622        2.6553997684
 C       -11.5302289663       -4.6883306571        2.6338410480
 O       -10.6074329191       -4.2821655483        1.9991008932
 C       -11.5995354162       -6.1391509817        3.2962113967
 C       -13.0117234324       -6.7261886947        3.7271960071
 O       -13.9852211274       -6.5841074759        2.9675522537
 C       -13.1699048882       -7.7610728234        4.8294346781
 C       -11.2515793477       -7.1266991348        2.1580308717
 C       -10.7146953280       -6.0701488343        4.5788304654
 C       -11.9060059951        0.2914158397        5.2725169201
 C       -14.1154208813        0.0063232471        4.0140646300
 C       -11.1087703717        1.3782427986       -1.3535892605
 C        -8.9715931881        0.0459999935       -2.0059689175
 C        -5.1954124904        5.9063309004       -3.9530233120
 C        -4.7002008104        6.7194831957       -1.4360091057
 C        -8.7892378406       11.6192351183       -5.5540631838
 C        -8.5451006095       13.3771645457       -3.5807794239
 C       -12.7442114140        7.6539249226       -1.0118427066
 C       -12.7547061355        9.1864832207        1.0387160875
 H       -10.2847979457        6.5760705632        2.7504705132
 H       -11.9740407093        6.2861759509        2.7945804671
 H       -11.4419833831        7.9194460671        2.9318531296
 H       -11.3906525902       11.2067882853       -0.4874230286
 H       -11.7888191497       10.3295761781       -1.9311150133
 H        -8.8124056360       10.7165041830       -1.2419505626
 H        -9.9240570197       12.0993913181       -1.4554718016
 H        -6.6464976910        9.6106805712       -5.1707126518
 H        -8.1280856692        9.1250258486       -4.2211553484
 H        -6.0613851563        9.3033413897       -2.2613799496
 H        -5.2517840556        8.6926456687       -3.8256045020
 H        -5.4532993741        3.1682492429       -2.4486605703
 H        -6.8781573763        3.7149260643       -3.3848250198
 H        -7.1027093061        3.1832536508       -0.4496150965
 H        -7.0273193698        1.6301542165       -1.3737963048
 H       -11.0217764900        1.4509620623        1.0337060628
 H        -9.7051866950        2.4100307878        1.8378097995
 H        -9.9992606180        0.8132119078        3.4855278814
 H        -9.8408450305       -0.5918169148        2.2270025958
 H       -12.3554774338       -1.9652732123        1.7961590821
 H       -14.0230280707       -2.1972778361        2.4962115465
 H       -13.4612425722       -4.3429014140        1.7353066110
 H       -13.6892445638       -4.3076800299        3.4308415000
 H       -12.2966105581       -8.3466329422        4.9903473355
 H       -14.1224324691       -8.3636222669        4.6006807933
 H       -13.4086275967       -7.1914116330        5.7751488035
 H       -12.0770684468       -7.0677892439        1.3843042653
 H       -10.9273078411       -8.0870031249        2.5032205568
 H       -10.3749885231       -6.7691585748        1.4955378886
 H       -11.2547116690       -6.0396947158        5.5980441526
 H       -10.0950653740       -5.1715285553        4.4654446455
 H       -10.1062026943       -6.9696050243        4.6006018186
 H       -11.4836313726       -0.4966898793        5.8415687554
 H       -12.5324157141        0.8150788423        6.0081408735
 H       -11.1114079885        0.9333884219        4.9583878662
 H       -14.5369384692        0.3622942177        5.1045860158
 H       -14.8388428942       -0.7993796152        3.7436501935
 H       -14.2130034351        0.9516664361        3.4322328140
 H       -11.8013912180        0.5069051022       -1.0554467958
 H       -11.3580040679        1.4025524966       -2.3788382459
 H       -11.5217199685        2.3341216721       -0.9541358526
 H        -8.6861581455       -0.8334588640       -1.3479084609
 H        -7.9977512623        0.2696768601       -2.2944395634
 H        -9.4040422628       -0.2471735825       -2.9406834598
 H        -4.3483584479        5.1319315470       -3.7249449650
 H        -4.6097379294        6.7735834319       -4.1381770502
 H        -5.9787119910        5.7209500585       -4.7756296673
 H        -3.9236676906        7.2871014104       -1.8797788585
 H        -4.1038097318        5.8906108411       -0.9656939054
 H        -5.0824041157        7.2662611178       -0.6095846137
 H        -7.7520232102       11.6012125361       -5.9503875863
 H        -9.1356592112       12.5565885160       -5.8780851337
 H        -9.3261642983       10.7384634545       -5.8967730510
 H        -9.3750621273       13.8663745672       -4.1797567142
 H        -7.4918843990       13.6943358816       -3.9110904003
 H        -8.5644001239       13.3863407294       -2.4950772645
 H       -13.5029748879        7.0156045667       -0.4364286450
 H       -12.0742980108        6.9833373600       -1.5451381998
 H       -13.1545464616        8.3672888894       -1.6038050477
 H       -13.7843821535        8.8231701241        0.9453421376
 H       -12.7882116362       10.2397203066        0.8237552460
 H       -12.4634853941        9.1257883385        2.1143579056
 Na       -9.4210254704        6.1916368916       -1.4106795210
