117

 C       -11.4761758152        7.0620049156        2.5602194203
 C       -11.2492372458        7.0045276565        1.0380872210
 O       -10.6991675693        6.1731710801        0.4496278284
 C       -11.9365247487        8.2525106491        0.2560795592
 C       -10.6123901156        9.0623368749       -0.5114655680
 O        -9.4892510116        8.5565692874       -0.5084798301
 C       -10.9184285945       10.4213737998       -1.2694346305
 C        -9.7021292688       11.1554742764       -1.8552997713
 C        -9.8002459563       11.0822629534       -3.4260078522
 O       -10.6035905777       10.3599740730       -3.9524010752
 C        -8.5614987014       11.8559462643       -4.1298400761
 C        -7.2724522822       11.0692848049       -3.5265935562
 O        -6.5694448118       11.5776896915       -2.6743994212
 C        -7.0743745196        9.7090333430       -4.1500388994
 C        -6.1503472753        8.8011924064       -3.1701178546
 C        -6.8262213675        7.3736029277       -2.8287084684
 O        -8.0017817210        7.2011637822       -2.9944574316
 C        -5.6990838609        6.2047366653       -2.6112749275
 C        -6.5753732068        5.0802598122       -1.9151243742
 O        -7.2285769426        5.2708665904       -0.9313632766
 C        -6.6286310739        3.6572751384       -2.4607825838
 C        -7.3394248344        2.6125458520       -1.5486492843
 C        -8.9173135836        2.5888190664       -1.4867295196
 O        -9.6239500328        3.5989658729       -1.6562103017
 C        -9.5555009770        1.2809385818       -1.2057014766
 C        -9.1448085144        0.9812641345        0.2857621459
 O        -8.0567021706        0.5187759609        0.4894283237
 C       -10.0037211060        1.4255446301        1.4850762902
 C       -10.4414680379        0.3889771197        2.4906942540
 C       -11.9712132534        0.2994179121        2.6973949080
 O       -12.6722614332        0.5223072434        1.6785414600
 C       -12.6456897760       -0.1886615488        3.9526223525
 C       -12.6451311087       -1.7796372137        3.9614280377
 O       -12.4596020370       -2.3634809162        5.0171089346
 C       -12.9397151813       -2.4622634548        2.5698123412
 C       -13.0186753274       -4.0008420507        2.5430880783
 C       -11.6839818558       -4.6934900436        2.6297618947
 O       -10.6766568324       -4.2214182711        2.2001775700
 C       -11.5844892463       -6.1307622874        3.3314877769
 C       -12.9942366542       -6.7922401322        3.7840221522
 O       -13.9073266040       -6.5658828864        3.0454889169
 C       -13.1115502307       -7.6580818473        5.0580395510
 C       -11.0038019581       -7.1341721024        2.3077365152
 C       -10.5783309424       -6.0205939895        4.6007648708
 C       -11.9443913308        0.2610093340        5.1894340702
 C       -14.1453436417        0.2069351229        3.8053782458
 C       -11.0479853540        1.4434710077       -1.4286387548
 C        -9.2544421423       -0.0487640252       -1.9452598051
 C        -5.1409688623        5.8789375774       -4.0031757846
 C        -4.7536299471        6.6859870964       -1.6300083981
 C        -8.6408634191       11.6137688984       -5.6165327327
 C        -8.5219587080       13.2254074486       -3.6740820793
 C       -12.7918793483        7.7256206708       -1.0041586955
 C       -12.6513200409        9.3203509682        1.0458575289
 H       -11.1006462179        6.1980416485        3.0913137673
 H       -12.6498109848        7.1076211251        2.6483956752
 H       -11.1139040483        7.9830016987        2.9495212982
 H       -11.3924984605       11.2811222524       -0.7254668149
 H       -11.6018631376       10.2419517654       -2.0509555063
 H        -8.6986928804       10.6084764886       -1.6010118577
 H        -9.7032001291       12.1418798918       -1.4351191698
 H        -6.5294463379        9.8074436340       -5.1072115840
 H        -8.0206030920        9.1812622233       -4.3513018333
 H        -6.1409547649        9.2707005024       -2.2050634102
 H        -5.1317871669        8.6839607602       -3.6204562434
 H        -5.4358189636        3.3946645888       -2.3401624184
 H        -6.8596953628        3.6853897565       -3.5264673887
 H        -6.9076599751        2.7720515567       -0.6103994877
 H        -6.9995342940        1.5662266951       -1.7837663574
 H       -10.8582282762        1.9947582354        1.3190524952
 H        -9.1771065146        1.9809637874        2.0362016525
 H        -9.8639253562        0.6854788068        3.4397742184
 H       -10.3068720995       -0.7307534604        2.1154817024
 H       -12.0255677049       -2.1856806034        1.9481082465
 H       -13.8032464606       -2.1730991601        1.9649245795
 H       -13.4391054398       -4.2433146980        1.5264243412
 H       -13.8722106205       -4.3053668517        3.1872195556
 H       -12.1806230052       -8.1487133966        5.2835838056
 H       -14.0043979919       -8.3165639748        4.9412870255
 H       -13.3593378707       -6.9742326181        5.9558001559
 H       -11.7212499328       -7.6481797711        1.7553364188
 H       -10.2596731884       -7.7165642215        2.7999345261
 H       -10.4798685316       -6.6008186632        1.4740283235
 H       -11.0240547810       -5.9497518143        5.6374901185
 H        -9.8420264964       -5.2207356944        4.4019887650
 H       -10.0931163450       -7.0133833196        4.5914955570
 H       -11.9032535664       -0.5895793226        5.8676429897
 H       -12.4580641892        1.0373448917        5.7348707849
 H       -10.9485581618        0.5856262301        4.9798100485
 H       -14.6596796817        0.5738858818        4.6080368355
 H       -14.7303631936       -0.7231894287        3.4483617337
 H       -14.1676242989        0.9839010564        3.0619644492
 H       -11.7248458427        0.7258263202       -1.0080706653
 H       -11.3356482540        1.4094251264       -2.5509077038
 H       -11.3961082692        2.4887581441       -1.1687588429
 H        -9.5472279621       -0.9581185290       -1.4096375215
 H        -8.1814567484       -0.2148193613       -2.0563003765
 H        -9.5103369380       -0.0232740287       -2.9831628826
 H        -4.7544707219        4.9877160939       -3.8985193141
 H        -4.2034019237        6.5171399753       -4.0685890734
 H        -5.8813300947        5.9769221673       -4.8486896460
 H        -4.0543509462        7.4359627478       -1.9756147929
 H        -4.0529321407        5.9541971406       -1.2989747470
 H        -5.2503561296        7.0790236868       -0.6780158487
 H        -7.7731536852       12.0480735974       -6.1779865011
 H        -9.4580871207       12.1506214159       -6.0096195624
 H        -8.6057259605       10.5507161114       -5.7470383132
 H        -9.5821416348       13.6608482439       -3.8778000937
 H        -7.6847349279       13.6884658881       -4.3323036663
 H        -8.0921966128       13.1006781712       -2.6420485809
 H       -13.7812305807        7.5642110149       -0.6490496699
 H       -12.2581813464        6.7557234410       -1.1356487817
 H       -12.7537468249        8.3433021041       -1.9507440251
 H       -13.6894843809        9.1098916930        1.0738441976
 H       -12.6340470918       10.3638995867        0.5534526361
 H       -12.2886871088        9.3756338933        2.0084228911
 Na       -9.3786249339        6.1663847122       -1.3990462038
