117

 C       -11.8767890998        7.0305549517        2.5474204850
 C       -11.3170579934        7.2771719733        1.2435837136
 O       -10.4451730552        6.4886126587        0.8996243412
 C       -11.7676334628        8.5315383156        0.2194960489
 C       -10.5310735418        9.0919482088       -0.5986290751
 O        -9.4721133188        8.4436448549       -0.6774655503
 C       -10.8672162080       10.3473833452       -1.4570315388
 C        -9.5991847041       11.0052980468       -2.0453188890
 C        -9.5679194071       10.9195575414       -3.6678459745
 O       -10.1825331493       10.0793325623       -4.2457623725
 C        -8.4008770632       11.7102213195       -4.3503462456
 C        -7.2362311496       10.9742445874       -3.6468136596
 O        -6.7361664839       11.2779044692       -2.5509735752
 C        -6.8242479631        9.6149559883       -4.1534745126
 C        -6.0660316082        8.7137037210       -3.1333606264
 C        -6.7488442201        7.2070234423       -2.8968090687
 O        -7.9167798905        7.0145030464       -2.8913107623
 C        -5.8211139152        6.0022149688       -2.6657530205
 C        -6.5572666497        4.8466942541       -1.9090260973
 O        -6.9177006985        4.8797368159       -0.7741121003
 C        -6.8101348759        3.5083470937       -2.7215017941
 C        -7.3899533916        2.3155902356       -1.9513751738
 C        -8.9704904507        2.7250104777       -1.4863617158
 O        -9.4911770623        3.8078605588       -1.4495658831
 C        -9.8418548936        1.3147603858       -1.0954254580
 C        -9.2912279624        1.0099227749        0.3426856834
 O        -8.2580960845        0.3798766923        0.4308674683
 C       -10.0729157923        1.5602523987        1.5920059135
 C       -10.6645780540        0.4294648393        2.4299111218
 C       -12.2029917725        0.3226789513        2.3668644382
 O       -12.7726269462        0.7185558337        1.3401924702
 C       -12.9758504468       -0.0370343910        3.6094185811
 C       -13.0945632977       -1.7128916495        3.6752835368
 O       -13.0892718574       -2.2048549225        4.8145967843
 C       -13.0401985610       -2.4817793783        2.3216761838
 C       -13.0001397361       -4.0269317350        2.7319443194
 C       -11.5393288680       -4.5712705862        2.8067696717
 O       -10.6066596702       -3.9303022561        2.6135193817
 C       -11.4337954222       -5.9941429583        3.6676594122
 C       -12.7716519300       -6.6380872950        4.1136427516
 O       -13.6949513499       -6.9616431882        3.3631630628
 C       -12.8537994011       -7.2113930824        5.4942825115
 C       -10.7753222999       -6.9615734191        2.5151969043
 C       -10.4738430524       -5.6468238029        4.8849316197
 C       -12.1138205288        0.4127081167        4.8293565483
 C       -14.4155223686        0.5743437220        3.5173283654
 C       -11.2439568931        1.7746029233       -1.0845706190
 C        -9.6312866484        0.1154793411       -2.1489684426
 C        -5.2541846628        5.5743173856       -3.9763054950
 C        -4.5911471485        6.2094952527       -1.7193819299
 C        -8.4834887150       11.4748017944       -5.8421121503
 C        -8.4217905827       13.1762866311       -3.8298089584
 C       -12.6828353113        7.6961011888       -0.7387091126
 C       -12.4419250912        9.6759297007        0.9068529387
 H       -12.8400379811        7.5263889087        2.6924632030
 H       -11.0536342183        7.4787908900        3.2048159127
 H       -11.8842832552        6.0383253403        2.7791890579
 H       -11.5686224114       11.0923422415       -1.0311901133
 H       -11.4973850125       10.0487184305       -2.3632811101
 H        -8.7350524145       10.6359565010       -1.5426003876
 H        -9.6396734512       12.0640980058       -1.9030605832
 H        -6.2601583334        9.7100621413       -5.1124849911
 H        -7.7432463637        9.0350780813       -4.3478493183
 H        -6.3254771015        9.2393866301       -2.1845597422
 H        -4.9483212386        8.7027231318       -3.1923606261
 H        -5.8061928518        3.3325943894       -3.1589745724
 H        -7.4796845845        3.5579739331       -3.4629567421
 H        -6.8415851408        1.8662956397       -1.0275081950
 H        -7.3563567162        1.3916757685       -2.7292896788
 H       -10.8334152749        2.2243980592        1.2525800137
 H        -9.4093795819        2.0004983064        2.3171421300
 H       -10.3412366922        0.6069613865        3.4209302980
 H       -10.2385758852       -0.5403142911        2.1073166893
 H       -12.0628169964       -2.3366508677        1.7382346204
 H       -13.8859078508       -2.4111092754        1.6677839450
 H       -13.4692213006       -4.7463614576        2.0700715459
 H       -13.5206355347       -4.1929404138        3.6920221902
 H       -12.1443848752       -7.9306369363        5.5313488290
 H       -13.8958228010       -7.5066043762        5.6543656168
 H       -12.5975649992       -6.5457143378        6.3424916634
 H       -11.5110422142       -7.0930453901        1.6678805230
 H       -10.4633805573       -7.9356064506        2.8960529682
 H        -9.8921541080       -6.3376791418        2.0205628184
 H       -11.0619454629       -4.8251974649        5.3512760497
 H        -9.5513037680       -5.3367102682        4.4979080922
 H       -10.3758683638       -6.3538148728        5.6487594992
 H       -12.8574245568        0.4707078180        5.6285191658
 H       -11.5609791028        1.4109553936        4.7999318844
 H       -11.4855607847       -0.4031518443        5.1976903797
 H       -15.0996163049        0.1739864716        4.2588749687
 H       -14.8629713701        0.4561895100        2.3813977642
 H       -14.4687844194        1.6950038168        3.7470114113
 H       -11.9956124093        1.0914508215       -0.7163045907
 H       -11.5265653349        2.1731990882       -2.0329072796
 H       -11.3641090248        2.7287317054       -0.6410795680
 H       -10.5458006265        0.1959701781       -2.8540609494
 H        -9.7488431055       -0.8705285232       -1.8020795304
 H        -8.6818137899        0.0023377777       -2.6177281060
 H        -4.5993894986        4.8195786208       -3.8797750507
 H        -4.6765171460        6.3854775047       -4.5534208383
 H        -6.1897904684        5.0180233683       -4.3909658807
 H        -3.9656940694        7.0270802012       -1.8505952381
 H        -3.9093119774        5.3722643850       -1.6373599592
 H        -4.9552128102        6.4571549917       -0.7280661659
 H        -8.4333238861       12.4304811866       -6.4478049595
 H        -9.4770257214       11.2263204191       -6.0289130334
 H        -7.7231498496       10.7553058251       -6.2202302973
 H        -9.3837589182       13.2453822152       -3.3585735828
 H        -8.4628681599       13.9222406450       -4.5997268881
 H        -7.6777555273       13.2370191983       -3.1045827940
 H       -13.6525334533        7.4590870993       -0.3241873683
 H       -11.9846193457        6.9059986393       -0.9962823886
 H       -12.8439035245        8.2076224779       -1.6499506843
 H       -13.1005386266        9.3607648762        1.7458411257
 H       -13.1148058408       10.1687999381        0.1126103646
 H       -11.6845026214       10.2977876767        1.3606229029
 Na       -9.1451693674        5.9535167882       -1.0545668897
