117

 C       -12.0012256292        7.2020261827        2.5749742334
 C       -11.1306442633        7.3608725355        1.3092891170
 O       -10.3635683903        6.5954056527        0.9110943016
 C       -11.7110012989        8.4974073862        0.1851690296
 C       -10.5605019676        9.0001099759       -0.7196569832
 O        -9.4851998507        8.4463833500       -0.8524496936
 C       -10.8484392317       10.2004464860       -1.5409173407
 C        -9.6701070257       10.9548648138       -2.1179903030
 C        -9.5338114754       10.8156503779       -3.5810246666
 O       -10.2062711690        9.9989547545       -4.2059478789
 C        -8.3702085724       11.5554233416       -4.2817116408
 C        -7.1064099821       10.7970579113       -3.6339067807
 O        -6.6725228844       11.3397094046       -2.6755208842
 C        -6.7756939902        9.3558708227       -4.1882925613
 C        -6.0388014588        8.4747270710       -3.1313282209
 C        -6.6936781031        7.1382106793       -2.7561950114
 O        -7.9014902493        7.0664652958       -2.8699656120
 C        -5.8103408624        5.9061645908       -2.5543367576
 C        -6.5333837366        4.7228494853       -1.9341481901
 O        -6.9138261874        4.7330204735       -0.7531948158
 C        -6.9003167198        3.5453680017       -2.8487772880
 C        -7.5950791291        2.5077341412       -2.0400010890
 C        -9.0108552465        2.6152629294       -1.5989557268
 O        -9.5326221176        3.7119026630       -1.4513041302
 C        -9.8801829743        1.4842959426       -1.2092123786
 C        -9.2290714444        0.9509106098        0.2939018664
 O        -8.2761040072        0.2874754641        0.4883305957
 C        -9.9783906150        1.4751945816        1.5437133050
 C       -10.6580261376        0.4686640120        2.4173435968
 C       -12.2815746779        0.4221558981        2.2523570163
 O       -12.8839914603        0.7625284209        1.2153758694
 C       -13.0204609416       -0.1049029230        3.5177698589
 C       -13.1780444279       -1.6997013279        3.6613019950
 O       -13.3525806026       -2.0208423517        4.7644648300
 C       -13.2382713614       -2.5233047662        2.4885503377
 C       -12.9762278011       -3.9973313872        2.7136863876
 C       -11.5160605626       -4.4231413152        3.0522670462
 O       -10.5186278296       -3.8679124388        2.5597448650
 C       -11.3974815172       -5.7676070631        3.8137144895
 C       -12.7187912384       -6.6245488693        4.1940807627
 O       -13.4704337162       -6.9842042172        3.3421822424
 C       -12.8225484950       -7.0991246711        5.6871239591
 C       -10.8801571675       -6.7601655671        2.7486692463
 C       -10.3837023237       -5.6056938364        4.9224771095
 C       -12.2493486487        0.3734457845        4.8080748033
 C       -14.4994583634        0.4456767878        3.3153850313
 C       -11.3055649262        1.9858748514       -1.0642914110
 C        -9.8207780921        0.2826261300       -2.0536557690
 C        -5.2799879369        5.5565745789       -4.1432179255
 C        -4.4788094996        6.1507962533       -1.7009295967
 C        -8.3750056115       11.4526529816       -5.8905630256
 C        -8.3303715978       13.1650065612       -3.8585130323
 C       -12.7046775551        7.6493385641       -0.6489973899
 C       -12.4488070880        9.6586553637        0.9090590339
 H       -12.4126177250        8.0627426970        2.9863507479
 H       -11.4237727599        6.4996109623        3.2875770122
 H       -12.8708347801        6.6337737250        2.2347530407
 H       -11.5633590995       10.9234491414       -0.9953538498
 H       -11.4846161794        9.9763960069       -2.3918818116
 H        -8.7671074861       10.3304359112       -1.7266154653
 H        -9.4777901545       11.9558004104       -1.8602938938
 H        -5.9873383945        9.5552535950       -4.9810696984
 H        -7.6257717089        8.7988335168       -4.6876620059
 H        -5.8719367042        9.1409104025       -2.2738711486
 H        -4.9680382187        8.2402968361       -3.5061050634
 H        -5.8369885978        3.0933349936       -2.9404687462
 H        -7.3190721983        3.7239042568       -3.8409044507
 H        -7.0003042724        2.4568064617       -1.1054951086
 H        -7.3705034224        1.4920356630       -2.4766595594
 H       -10.6299776050        2.2224340709        1.2622577417
 H        -9.1856688746        1.8730803194        2.2195016281
 H       -10.3520380384        0.6390370418        3.5315312161
 H       -10.1720084080       -0.5343079578        2.0137351219
 H       -12.4738166138       -2.3587356803        1.6647119713
 H       -14.2579101923       -2.5308390623        2.0478879897
 H       -13.0684284749       -4.6659515364        1.7947545761
 H       -13.6868718584       -4.4363911947        3.4623477842
 H       -12.1430235220       -8.0390800265        5.7556117111
 H       -13.8339189126       -7.2059551553        6.0035536595
 H       -12.3195991608       -6.4417689973        6.4346017950
 H       -11.3931846217       -6.6494049774        1.7801021482
 H       -11.1220155301       -7.8280417087        3.1472750074
 H        -9.8048754920       -6.6274558987        2.5488396054
 H       -10.9778286401       -5.1780031575        5.7020208128
 H        -9.4986019383       -5.0352698580        4.6074715869
 H       -10.0653822155       -6.6008647983        5.3359268237
 H       -13.0132091278        0.1159586593        5.5922342475
 H       -11.9923783078        1.4120194239        4.8107791368
 H       -11.4081056399       -0.2490628606        5.0799289887
 H       -15.3297893477       -0.1661906566        3.6232570598
 H       -14.6148413257        0.8129228335        2.2737454257
 H       -14.6336221211        1.4019702303        3.9826951026
 H       -11.9576930843        1.2634265038       -0.7166134640
 H       -11.5928789472        2.3331712224       -2.1215209065
 H       -11.5626899721        2.9597051649       -0.6572785368
 H       -10.2710289082        0.4375678575       -2.9855381188
 H       -10.5041864320       -0.4823602146       -1.6119179767
 H        -8.9269920010       -0.2951132250       -2.0909158510
 H        -4.3361291704        4.9811129068       -4.2232418508
 H        -5.0410376406        6.5404844103       -4.6805430934
 H        -5.9695399072        4.9410132628       -4.5788781184
 H        -3.8172822124        6.9308944242       -2.0639315467
 H        -3.9017060646        5.3280136204       -1.4414251455
 H        -4.7512314409        6.7228564081       -0.7855662331
 H        -8.2263854977       12.3771850211       -6.4486008546
 H        -9.2998798951       11.0535584837       -6.3210851272
 H        -7.5163905185       10.8150028081       -6.1485863706
 H        -9.3811704464       13.5739042936       -3.7076788336
 H        -8.0078737462       13.6240235398       -4.8110575405
 H        -7.6188111099       13.3166346153       -2.8892849804
 H       -13.3248089725        7.1036658620       -0.0499291972
 H       -12.0726164435        7.1455748243       -1.3695971990
 H       -13.3662673097        8.3692151333       -1.2587727101
 H       -13.2633617986        9.3651320008        1.5656779664
 H       -12.8992595130       10.2023774782        0.0230159269
 H       -11.7631270089       10.2318314220        1.4977889370
 Na       -9.0012822902        6.0645827968       -0.8543928265
