117

 C       -12.0006769811        7.3585183277        2.5528141726
 C       -11.2530559930        7.3609230125        1.2147764893
 O       -10.2247660418        6.6512592570        1.0888892009
 C       -11.6571122198        8.4006830706        0.1769984945
 C       -10.5897556751        8.9393957341       -0.7770340604
 O        -9.5060965789        8.4205006471       -0.9988374492
 C       -10.9001901066       10.1538339249       -1.6227019011
 C        -9.6788475875       10.9130450927       -2.1041021470
 C        -9.4991133971       10.6831273011       -3.6341392773
 O       -10.2557075981        9.9763641489       -4.2660662179
 C        -8.2355390236       11.4445972783       -4.3305634311
 C        -7.0254309388       10.7116134732       -3.6649098401
 O        -6.4043755672       11.1961377676       -2.7400153805
 C        -6.7206556613        9.3128890704       -4.1317734513
 C        -5.9131509034        8.4509259650       -3.1067366267
 C        -6.6359077530        7.1583993164       -2.8796451274
 O        -7.8898701409        7.0281739704       -2.6926963980
 C        -5.7625751792        5.8914330348       -2.5882724884
 C        -6.5241435192        4.6544600103       -2.0398644152
 O        -6.8433269099        4.7610307024       -0.8417884900
 C        -6.9364718128        3.4485275511       -2.8610149612
 C        -7.6331706674        2.3353739105       -2.0286988252
 C        -9.0495180974        2.7339901147       -1.6183417068
 O        -9.4772756974        3.9236839364       -1.5326547306
 C       -10.0078192324        1.4582295834       -1.1136936315
 C        -9.3219120940        1.0520331053        0.2875730129
 O        -8.3915654361        0.2513427871        0.2247638662
 C        -9.9138139518        1.5891884228        1.5804453196
 C       -10.7124507343        0.3831160603        2.2542756592
 C       -12.2156486488        0.4250207868        2.1709270931
 O       -12.7412109073        0.7627547576        1.1691119707
 C       -13.1002660095       -0.0178746018        3.5219603018
 C       -13.3231047172       -1.5820450444        3.6738516437
 O       -13.5843103928       -2.0430678716        4.7728076092
 C       -13.3834737525       -2.4834125451        2.4140751325
 C       -13.0523784758       -4.0077469238        2.6033981825
 C       -11.6157870631       -4.4182709092        3.1575881752
 O       -10.6160381863       -3.7754386512        2.6640735165
 C       -11.3017177930       -5.7770077958        3.9645660413
 C       -12.5796666832       -6.4965276254        4.3515695693
 O       -13.3243834612       -6.8914144850        3.4507498819
 C       -12.8498701040       -6.9363514080        5.7764348101
 C       -10.6753965430       -6.6928368286        2.8220511026
 C       -10.2427169667       -5.5949959172        5.0540007513
 C       -12.6519326708        0.4527721487        4.8015225580
 C       -14.5617959795        0.3788861627        3.3317206739
 C       -11.4189507239        2.0258223342       -1.0131580216
 C        -9.9318766102        0.2124941498       -2.0572187867
 C        -5.2595916845        5.5969433768       -4.0840622665
 C        -4.4823030739        6.1668194172       -1.7602305677
 C        -8.3296771222       11.3859143247       -5.8525322240
 C        -8.2393316832       12.9189088487       -3.9462426720
 C       -12.7450616313        7.6089887171       -0.6365791041
 C       -12.4872345154        9.6077291264        0.9837356447
 H       -11.5179076120        7.9568670020        3.3514766604
 H       -12.0863453404        6.3743727861        2.7915804073
 H       -13.0825548936        7.8022335551        2.4456123729
 H       -11.5365958036       10.8320507178       -1.0700243302
 H       -11.5255100093        9.9904480256       -2.4703116070
 H        -8.8236486333       10.3975212529       -1.5681299352
 H        -9.5503910974       12.0246486936       -1.9146022307
 H        -6.2013868941        9.3324399490       -5.1010866039
 H        -7.6678068532        8.7447319598       -4.3136013404
 H        -5.6387181446        8.9878744802       -2.1635653778
 H        -4.9340811563        8.1890541177       -3.5330361714
 H        -6.2353734762        3.1423044917       -3.6349057591
 H        -7.8845775499        4.0608569819       -3.3453219371
 H        -7.0432364630        2.0308089605       -1.1945705893
 H        -7.7381165400        1.4882144466       -2.5776094912
 H       -10.6144853594        2.4346994565        1.2617707992
 H        -9.1861898770        1.9118383192        2.3236216517
 H       -10.5067395609        0.4358656545        3.3791684201
 H       -10.2268729203       -0.5300384095        1.8057368999
 H       -12.8457321633       -2.2399185508        1.5706732301
 H       -14.4794918485       -2.5670022580        2.1738177952
 H       -13.2734898962       -4.8482309789        1.8968104094
 H       -13.6344139517       -4.2005699067        3.5317933903
 H       -12.2424497354       -7.9136058529        5.8920755126
 H       -13.9417221241       -7.0140438416        5.9749723223
 H       -12.4030005197       -6.3112156308        6.5446988564
 H       -11.1975800825       -6.5364515212        1.8644479631
 H       -10.8784536589       -7.7476633937        3.0724225560
 H        -9.6578549543       -6.4981615403        2.7252887593
 H       -10.6316959524       -5.3569583009        6.0336924675
 H        -9.4360620950       -4.9236840459        4.6247038646
 H        -9.7514413989       -6.6206675671        5.1367527146
 H       -13.1221860931       -0.1219086310        5.5944114727
 H       -12.7846964604        1.4963256948        4.8472868311
 H       -11.5903745504        0.2800237861        4.9101246703
 H       -15.2542131942       -0.4911581561        3.5175393591
 H       -14.7872503465        0.8732882531        2.5003073298
 H       -14.8294503693        0.9928480686        4.1171992236
 H       -12.1853988151        1.2754755097       -0.6292800179
 H       -11.6749401554        2.3224992806       -2.0396762667
 H       -11.7017762493        2.9972845125       -0.5842853221
 H        -9.7736141565        0.5521779213       -3.0443031867
 H       -10.8850439998       -0.3419596736       -2.0999505404
 H        -9.2664544381       -0.6210855007       -1.8388195832
 H        -4.3218307557        4.9390345494       -4.3391720450
 H        -4.9858971499        6.4978560775       -4.4227111182
 H        -6.0418535573        5.2043245839       -4.6864641257
 H        -3.7157529290        6.8674611589       -2.1763878317
 H        -3.9798829317        5.2566989858       -1.3825681687
 H        -4.7098587782        6.8085097923       -0.9317865621
 H        -8.2830540856       12.2627792267       -6.4175445819
 H        -9.2745927632       10.8194828071       -6.2119422620
 H        -7.4672799370       10.7724926839       -6.1818555498
 H        -9.2149175686       13.4585441905       -4.2651720851
 H        -7.4088148174       13.3434702404       -4.6343734996
 H        -8.0099934492       12.9032060221       -2.8286278926
 H       -13.2711958521        6.9045037165        0.0675144610
 H       -12.3871176767        7.3005534592       -1.6146379019
 H       -13.5269269143        8.3578867140       -0.8201151631
 H       -13.3666679141        9.3122402403        1.5418376222
 H       -12.7551706267       10.1304084008        0.1715701990
 H       -11.8569490285       10.2009544849        1.6831453078
 Na       -8.8213980541        6.1298645327       -0.7313910593
