117

 C       -11.8057287122        7.3971895643        2.7037580503
 C       -10.9736493421        7.4648406535        1.3750840970
 O        -9.9888664697        6.8489794105        1.1501581502
 C       -11.6123877887        8.2876992713        0.1370052297
 C       -10.5537719391        8.7358589175       -0.9684341176
 O        -9.5270147123        8.0577021017       -1.2076613066
 C       -10.8217782207       10.0050613032       -1.8340485720
 C        -9.4841935498       10.5791209267       -2.3407530970
 C        -9.2921559372       10.4549589666       -3.8994353832
 O       -10.1238454979        9.8404139378       -4.5524395059
 C        -8.0475202988       11.0906286404       -4.5153919729
 C        -6.7468546959       10.2980637857       -4.0386487237
 O        -5.9489122701       10.7492771398       -3.3073099188
 C        -6.6976369475        8.6437831853       -4.2132624480
 C        -5.4789236287        7.9542088911       -3.5897869739
 C        -6.0012055571        6.8191830091       -2.7468635452
 O        -6.9522084414        7.0685442539       -1.9498250844
 C        -5.2852214321        5.4061428704       -2.6486716766
 C        -6.2501250310        4.3984602962       -1.9503747200
 O        -6.3519471095        4.5094365211       -0.7186944609
 C        -7.2158777643        3.4006361130       -2.8666489195
 C        -8.0700521136        2.4211535558       -1.9953923158
 C        -9.3495356851        2.9586199051       -1.5192948220
 O        -9.4675645327        4.1588058686       -1.3118382895
 C       -10.5446919391        2.0269375260       -1.2711326858
 C       -10.0520097647        1.2164768656        0.1152036549
 O        -9.2853199790        0.2932671625       -0.1052558053
 C       -10.4400246767        1.3805970250        1.4846487797
 C       -11.3096067621        0.4020443268        2.1958379379
 C       -12.8257492041        0.2984691230        1.8968978915
 O       -13.2741954165        0.2679944241        0.7435541959
 C       -13.7254324436       -0.0597288867        3.1485748201
 C       -13.6986786877       -1.5929289566        3.5069507475
 O       -13.8528148724       -2.0006437454        4.6053930557
 C       -13.5586904661       -2.6467405679        2.3761781140
 C       -12.8172221825       -4.0072220445        2.7544218935
 C       -11.6551887911       -3.7747954830        3.7017095967
 O       -11.0037020535       -2.7491666830        3.7305137880
 C       -11.0549026276       -5.1112046931        4.3775283242
 C       -12.1648313464       -6.0304144830        4.9445414605
 O       -12.6565098532       -6.8143463080        4.1847191481
 C       -12.7309773521       -5.9004718182        6.3772663088
 C       -10.3731514665       -5.7544398395        3.0568964826
 C        -9.8501599075       -4.9310249832        5.3546633684
 C       -13.3777976530        0.9771630933        4.3293182938
 C       -15.2106641533        0.2238203038        2.7623136046
 C       -11.7867004731        2.7296884472       -0.7224520870
 C       -10.9510290726        0.9374860708       -2.1882248159
 C        -4.8454914162        4.7117077512       -4.1004818141
 C        -4.0034270283        5.4031870524       -1.7367095627
 C        -8.1411826469       11.0711374620       -5.9817761871
 C        -7.9352986199       12.4859767167       -3.9953946971
 C       -12.7172446470        7.2232034870       -0.4386816657
 C       -12.4330309684        9.5334235318        0.6147641589
 H       -12.8272290555        7.1946529117        2.5578417226
 H       -11.6990427135        8.3016450484        3.3252064804
 H       -11.4175796112        6.4421062071        3.2973704262
 H       -11.2982449770       10.8432935631       -1.2706031938
 H       -11.4439236121        9.8141332499       -2.6816557650
 H        -8.5557705317       10.1446790886       -1.8937966278
 H        -9.4442138613       11.5981455918       -2.0882953658
 H        -6.7514299735        8.4733226901       -5.2654952720
 H        -7.5977755704        8.2404988918       -3.8299442539
 H        -4.8370223657        8.5895739484       -3.0127029755
 H        -4.7830156034        7.7059605300       -4.4070944108
 H        -6.5852143274        2.7172143740       -3.4359776444
 H        -7.7411763961        3.8961511077       -3.5680462071
 H        -7.4687100470        2.1227090502       -1.0916769146
 H        -8.2462218170        1.4729859134       -2.5924724305
 H       -10.6959198774        2.3706288891        1.6753210219
 H        -9.4873138191        1.3465254655        2.1429165322
 H       -11.2121049421        0.5985616999        3.1910670043
 H       -10.8401395870       -0.5110583934        2.1857875492
 H       -13.2116913253       -2.2395942955        1.3944204077
 H       -14.5248012176       -3.0572319996        2.2077794672
 H       -12.4575771061       -4.5101607963        1.8777715729
 H       -13.5105527104       -4.6997681991        3.1745443116
 H       -11.9836187915       -6.2124870869        7.1759959394
 H       -13.5392719128       -6.5156529864        6.5687769712
 H       -12.9213713697       -4.8643441521        6.5208822027
 H       -11.0240339186       -6.4437628248        2.6319099480
 H        -9.5040318610       -6.3079631192        3.4724461138
 H        -9.9760543995       -5.0217413862        2.4545909747
 H       -10.2070982438       -4.7708626573        6.3714193698
 H        -9.2474311548       -4.0243836785        5.1158406974
 H        -9.2562012510       -5.8896727996        5.2426841077
 H       -14.3391737104        1.4078617672        4.6967473706
 H       -12.7945059475        1.7929615434        3.9727879154
 H       -12.8417244408        0.4446100793        5.0708046037
 H       -15.2571683518        0.8042160874        1.7514502417
 H       -15.8677917368        0.6271023528        3.4175086777
 H       -15.7041722090       -0.7201141851        2.6328916385
 H       -12.3464770013        2.1357009865       -0.0569257335
 H       -12.5654092374        2.8636484454       -1.5254165387
 H       -11.5788428364        3.5824612067       -0.0945133240
 H       -11.2872188057        1.3955600933       -3.1007504659
 H       -11.8498962893        0.3961056658       -1.7097256626
 H       -10.0644507572        0.3867261744       -2.5357831368
 H        -4.5673620082        3.5320584544       -3.8542759146
 H        -4.2081002819        5.2260177502       -4.8203922884
 H        -5.6756868515        4.6784269749       -4.7512160748
 H        -3.1814663840        6.1858674466       -1.8925051619
 H        -3.5524967436        4.4393201157       -1.7379416244
 H        -4.2411664776        5.4921023907       -0.6227987356
 H        -9.0781312507       11.5701672992       -6.3136121459
 H        -8.0520970127       10.0580060289       -6.4118019225
 H        -7.3358162344       11.5138619773       -6.5746172212
 H        -8.8272034794       12.9253467266       -3.7925537028
 H        -7.4038674955       13.0180946526       -4.6648008132
 H        -7.3588692566       12.5532651779       -3.1315810627
 H       -13.4675419581        6.9320969176        0.2852931340
 H       -12.2754587370        6.2793207277       -0.7862387773
 H       -13.1207211215        7.8688892774       -1.3272845134
 H       -13.2620784061        9.2795304926        1.3097767141
 H       -12.8972767562        9.8952563944       -0.2861040940
 H       -11.6955615934       10.2828465018        0.9408903349
 Na       -8.5324694038        6.1812911182       -0.7016735384
