117

 C        -3.6040162941       10.5808800061        4.7531923278
 C        -4.8405820899        9.7899429555        4.2163058713
 O        -5.1941701973       10.0840297860        3.0645648407
 C        -5.6576176196        8.7821153816        4.9935222698
 C        -5.5510321121        7.3555661351        4.1981922024
 O        -4.8762664748        6.5007601601        4.7298124071
 C        -6.2046004673        7.1273011005        2.8548650294
 C        -6.3764878177        5.6186188870        2.7303994020
 C        -7.0996045892        5.1481936467        1.4688389530
 O        -8.3152446293        5.1037889059        1.5898791363
 C        -6.4667145721        4.6591581873        0.1570866518
 C        -6.2179905681        3.0816263809        0.4225704692
 O        -5.1491631115        2.6262169302        0.1332582666
 C        -7.3082516119        2.1580042164        0.9745838818
 C        -7.4666553733        0.9289869203        0.0259715476
 C        -8.5670454044       -0.0633428229        0.4477019629
 O        -9.5526824352       -0.2143996457       -0.2635150599
 C        -8.4196502061       -0.8002729704        1.8007154577
 C        -9.1970237228        0.3494326050        2.6769080801
 O        -8.6197285059        1.1073249651        3.3998242473
 C       -10.7418569468        0.2454914626        2.6899355052
 C       -11.2933819015        1.7096731626        2.9659400728
 C       -11.1566494391        2.5344159967        1.6913826031
 O       -10.4016029485        2.2321978670        0.7765158667
 C       -12.1481555113        3.7121307030        1.3982646201
 C       -13.1914959906        3.0427040153        0.3442443942
 O       -12.8830379220        2.0890279755       -0.3594573266
 C       -14.6068031963        3.4749915529        0.3317550183
 C       -15.3832312572        3.4668990196       -1.0259603540
 C       -14.6146974690        4.4725299908       -1.9762518488
 O       -13.7521960270        5.1532849908       -1.5474760257
 C       -15.1958679868        4.6450953219       -3.4530403286
 C       -14.0355270932        4.0177593120       -4.4332448156
 O       -14.2457535034        2.9068061524       -4.9309006466
 C       -12.8751432526        4.9939170026       -4.7324105971
 C       -11.7154471678        4.1122371069       -5.3202696396
 C       -11.2057990157        3.0111198834       -4.2990562523
 O       -11.5974290632        3.0822056274       -3.1813017336
 C       -10.3322197191        1.7290987460       -4.9328514808
 C       -10.9915293732        0.4413757023       -4.3887368672
 O       -10.9528061591        0.2327465584       -3.1884848039
 C       -11.6389120907       -0.5872282156       -5.2286592257
 C       -10.0318199293        1.8469703448       -6.4297845091
 C        -8.9062454651        1.8078130261       -4.1327900507
 C       -16.6201016663        3.9848910331       -3.7979722461
 C       -15.3888608884        6.1994825154       -3.5517050686
 C       -12.8950194608        4.3643114121        2.5989076318
 C       -11.3701814031        4.8663600257        0.6196636847
 C        -9.1140373370       -2.1464028708        1.6617662963
 C        -6.9324005827       -0.9469350917        2.2513731103
 C        -7.4451253264        5.0299401173       -1.0141368343
 C        -5.0777614355        5.3951188805        0.0291282056
 C        -5.3071097221        8.5027943456        6.4431786200
 C        -7.0995246289        9.2006303621        4.8157122937
 H        -4.0099585904       11.5659435363        5.2144011794
 H        -2.9780375275       10.6947131046        3.8557271747
 H        -2.8799669562       10.1117962675        5.4122814238
 H        -5.5579499385        7.7017760116        2.0833006428
 H        -7.1474129442        7.6980629727        2.8431144485
 H        -6.8634840064        5.1109387212        3.5035972619
 H        -5.4494557186        5.1035099541        2.7431859126
 H        -8.3530754171        2.5141817479        1.1704812772
 H        -6.9269980678        1.8677324193        2.0136615713
 H        -6.5127620297        0.3268585388        0.0326614819
 H        -7.7095467252        1.2817417467       -0.9638131101
 H       -11.1023658148       -0.3525365975        3.4800434737
 H       -11.0870867041       -0.2416548195        1.8123191032
 H       -10.6594718693        2.0913828985        3.7038758252
 H       -12.3701226247        1.8178836737        3.3212703151
 H       -14.7775038010        4.5008885366        0.6407714045
 H       -15.1715813758        2.8361314527        0.9998741125
 H       -16.4153587427        3.7714912396       -0.8406245984
 H       -15.3624805904        2.4929399128       -1.4345254715
 H       -12.6020536369        5.5031903740       -3.7942555848
 H       -13.1109403898        5.7190511678       -5.5143092009
 H       -10.7077777352        4.5830730251       -5.6001416539
 H       -12.0354485440        3.7215772123       -6.3293202347
 H       -11.4384734543       -0.5820621076       -6.3254563694
 H       -12.7019317490       -0.5062972041       -5.0372551010
 H       -11.2850106561       -1.5580193441       -4.7961111711
 H        -9.6939622744        2.8258878990       -6.7105725339
 H       -10.9835046174        1.6457487438       -6.9851396753
 H        -9.2767827574        1.1070885476       -6.6851665653
 H        -8.9794560099        2.0390507359       -3.1121148468
 H        -8.3508670276        2.5492779628       -4.5942086980
 H        -8.3367485009        0.8044379143       -4.0909661528
 H       -16.4777947095        2.9360520402       -4.1110918926
 H       -17.1705103259        4.4931399811       -4.5819932350
 H       -17.3755848905        4.0420657423       -2.9199477286
 H       -15.6258975230        6.4867326719       -4.5450132319
 H       -14.5277771744        6.6830317545       -3.2671564276
 H       -16.2190196017        6.5721521801       -2.8832826088
 H       -12.2231612547        4.7040627287        3.4108935128
 H       -13.5279173507        3.6274781212        3.0825711779
 H       -13.4906590713        5.2279844568        2.2152382770
 H       -10.7404118550        5.5247360862        1.2645471731
 H       -12.0583346407        5.5231128300       -0.0081877129
 H       -10.6288958095        4.4004288533       -0.0277599017
 H        -9.3131101571       -2.5342969075        2.6348177425
 H        -8.5340033611       -2.8851580964        1.0798743624
 H       -10.0480577800       -2.0182386336        1.1448328081
 H        -6.5969816810       -1.9569039956        2.0889926408
 H        -6.7908863396       -0.7327754969        3.3202069243
 H        -6.3172020738       -0.3857085674        1.6431334342
 H        -7.8538257867        5.9943706591       -0.9118999566
 H        -8.3187936119        4.3915864320       -1.1550954615
 H        -6.8280830718        4.8224467087       -1.8908978802
 H        -5.2444090108        6.4427066920        0.0171246331
 H        -4.6071594956        5.0707705540       -0.8965388996
 H        -4.4939034508        5.1553750995        0.8772890016
 H        -4.4221966769        7.8694487589        6.5586750136
 H        -6.1407211171        8.0014273695        6.8897959517
 H        -5.0271830826        9.4337387102        6.9735132842
 H        -7.2304559348        9.4389894341        3.7620430039
 H        -7.3053760865       10.0131086158        5.5067666016
 H        -7.8270119960        8.4337330106        5.0787608590
 Na      -10.7942486308        1.6316493899       -1.4165726960
