117

 C       -11.5754678501        7.6209470894        2.6010783930
 C       -10.8595037994        7.4798670368        1.2896627787
 O        -9.8390937301        6.7997744803        1.2217010359
 C       -11.5344714839        8.2203659485       -0.0014899344
 C       -10.4346256045        8.6277474332       -1.0103272668
 O        -9.6438192387        7.8692905421       -1.4280205334
 C       -10.6054192995       10.0133786341       -1.7017082132
 C        -9.3199294044       10.4130896957       -2.3817713727
 C        -9.2827187477       10.2628743932       -3.8308994465
 O       -10.0804993389        9.6260182904       -4.4633866467
 C        -8.0582840985       10.8583638551       -4.5086311464
 C        -6.7745534322        9.9637505000       -4.0340472449
 O        -5.8726358741       10.4715013174       -3.3906680264
 C        -6.8030426185        8.4568566427       -4.4159217547
 C        -5.5532246042        7.6995245106       -3.8335833976
 C        -5.9087079694        6.7136683062       -2.7085004335
 O        -6.4008324828        7.1095110251       -1.7405725846
 C        -5.2681381887        5.2884915230       -2.6345853920
 C        -6.4248468763        4.2980424119       -1.7519850389
 O        -6.5186958549        4.4207399369       -0.5867183174
 C        -7.3663161585        3.4773482623       -2.6283527525
 C        -8.2674948787        2.4711185256       -1.8726371469
 C        -9.5514143732        2.9850125080       -1.3305873186
 O        -9.7256462112        4.1821321215       -1.3705442694
 C       -10.7355620079        2.1879656599       -1.0298965945
 C       -10.2875319001        1.1221244481        0.0888991713
 O        -9.6224892479        0.1537143051       -0.1113382384
 C       -10.7163940994        1.3762493748        1.5855728243
 C       -11.4148444480        0.0618306445        2.1181847281
 C       -12.8884457996        0.1729781758        1.7017658001
 O       -13.1993039195        0.3194126977        0.5498969686
 C       -14.0207282291       -0.0524624858        2.9716933170
 C       -13.7236055141       -1.4832004333        3.4329213232
 O       -13.6785589746       -1.7013663634        4.6114252111
 C       -13.4386024502       -2.6178198269        2.3394727239
 C       -12.8866162583       -3.8670068106        2.9542126538
 C       -11.5930265849       -3.6415389680        3.8090785088
 O       -11.3312150327       -2.5179527362        4.2100868643
 C       -10.9205964790       -4.9219602944        4.2757137203
 C       -12.0261196291       -5.8568960048        4.9663987690
 O       -12.4276224402       -6.8984590196        4.5032715864
 C       -12.4667839960       -5.3643956042        6.3511248189
 C       -10.2265747827       -5.6451536939        3.1569196396
 C        -9.9306315754       -4.3346154236        5.4421960880
 C       -13.6937505430        0.8826183667        4.1055188505
 C       -15.4180225417        0.1635429340        2.4708151382
 C       -11.9165144790        3.0935942934       -0.6838038784
 C       -11.1796308720        1.2184697070       -2.2282429554
 C        -4.9052200896        4.7071054289       -4.1050052031
 C        -3.8814837281        5.4556609143       -1.8087445764
 C        -8.0081034983       10.9192363070       -6.0474855723
 C        -7.8383393376       12.2797757645       -3.9474027551
 C       -12.4803951664        7.2161321052       -0.8266341302
 C       -12.2423211667        9.4649055059        0.4813698901
 H       -12.6760254437        7.8079138327        2.5588711801
 H       -11.0722067122        8.4391269176        3.1534803012
 H       -11.4431351058        6.8180770662        3.1508140074
 H       -10.9541354838       10.8107989070       -1.0704314998
 H       -11.3347579853        9.8977129471       -2.5767458276
 H        -8.6326801365        9.6569707966       -2.1240208215
 H        -8.8149794954       11.3887024313       -2.0768097117
 H        -7.0119944800        8.4527828836       -5.4981265857
 H        -7.7264339318        8.0192189808       -3.9522831752
 H        -4.7219406045        8.4137486486       -3.5530252495
 H        -5.1377460754        7.1978274139       -4.6915959247
 H        -6.7381321808        2.8253250680       -3.3179078679
 H        -7.8673867854        4.1849897783       -3.4221836589
 H        -7.5879076811        2.1544040355       -1.0749995823
 H        -8.3938702570        1.6001010007       -2.5063372046
 H       -11.3980456764        2.2806348962        1.6758775302
 H        -9.9364158761        1.5926482254        2.2191928191
 H       -11.3475672109       -0.1392694697        3.2549722394
 H       -10.7383409053       -0.8207903610        1.7416610021
 H       -12.6326140019       -2.2537226549        1.6579483879
 H       -14.4396982406       -2.5611084126        1.7267097731
 H       -12.6552375855       -4.6959062408        2.2418011041
 H       -13.5863497230       -4.3261844525        3.6973190522
 H       -11.8539975831       -5.7124167431        7.0889565983
 H       -13.4192352740       -5.8531451063        6.6144729444
 H       -12.4781168758       -4.2279998903        6.3430378186
 H       -10.8889404662       -5.5082338907        2.2464502364
 H       -10.1430481013       -6.6601933785        3.4740205593
 H        -9.1500800656       -5.1891219323        3.0895195123
 H       -10.4472395566       -3.8161791870        6.2582066611
 H        -9.2848990658       -3.6147884491        5.0220556783
 H        -9.4089423074       -5.1636112890        5.7710095953
 H       -14.4714481291        0.8197776590        4.8343367799
 H       -13.7069531509        1.9536177394        3.7781995440
 H       -12.7379882796        0.4390604218        4.4593313051
 H       -15.6948767211        1.1637650483        2.5855959576
 H       -16.2414762629       -0.4768384675        3.0496889629
 H       -15.6685581796       -0.2469425399        1.4276291494
 H       -12.7854228400        2.4289531132       -0.6746320550
 H       -12.1038658869        3.6498629700       -1.5504107948
 H       -11.9144986007        3.6215849271        0.2776713950
 H       -11.4207595512        1.7046304235       -3.2325201154
 H       -12.1085504774        0.9776103555       -1.8500078895
 H       -10.4878065272        0.3866673518       -2.3922093504
 H        -4.5467232963        3.7555941591       -4.0044077230
 H        -4.1047418173        5.2649513255       -4.5732378650
 H        -5.6005569420        4.7991991399       -4.9525306161
 H        -3.0307833722        5.7582397765       -2.3240461562
 H        -3.6064001061        4.6189884772       -1.1184406467
 H        -4.0985333086        6.1689347209       -1.0257147772
 H        -8.3319229350       11.8788885228       -6.4603280664
 H        -8.4567455554       10.1813651679       -6.6724186688
 H        -6.9896927915       10.7620355555       -6.3832715581
 H        -8.7662364853       12.9349532685       -3.9242474965
 H        -7.1176199779       12.8902930766       -4.5448686117
 H        -7.3804518491       12.3849380869       -2.8434524481
 H       -12.9022000913        6.3440015334       -0.2731787004
 H       -11.8243157171        6.6711763793       -1.4927575154
 H       -13.1455863621        7.7989087397       -1.3541534504
 H       -13.2541113286        9.2792967779        0.7690683329
 H       -12.4547822980       10.0770370914       -0.4729755523
 H       -11.6163807070        9.9923440827        1.1570471166
 Na       -8.3377057461        6.0877083005       -0.6015026173
