117

 C       -11.4534772093        7.5819722922        2.7360243757
 C       -10.8135458061        7.4778652168        1.1995913727
 O        -9.7942133514        6.7996974191        1.0764651297
 C       -11.5318669645        8.1857360733       -0.0200456710
 C       -10.4578797553        8.6048250785       -1.1064501096
 O        -9.6268718904        7.7898048506       -1.5513409879
 C       -10.4976135992       10.0245287465       -1.6356850294
 C        -9.1317284690       10.3607047652       -2.3050459987
 C        -9.1441717347       10.2097262884       -3.8957025082
 O        -9.9755531066        9.6100610024       -4.5344932548
 C        -7.8064619340       10.8376917941       -4.5730047027
 C        -6.7147678452        9.9059862605       -4.1082591703
 O        -5.8097908153       10.2366881653       -3.4149841489
 C        -6.9061969391        8.2822039658       -4.4434154243
 C        -5.5945071578        7.4984870665       -3.9633373629
 C        -5.8567739465        6.7205514270       -2.6200322318
 O        -6.3848934435        7.2587804628       -1.6519628160
 C        -5.3154427642        5.2226890466       -2.5342069650
 C        -6.3650052550        4.3819826427       -1.8586767599
 O        -6.5459272153        4.4496816377       -0.6552565674
 C        -7.3413605911        3.4324554331       -2.6794265347
 C        -8.2131675465        2.4263109728       -1.7399316809
 C        -9.6390748024        3.2115081211       -1.4199325711
 O        -9.6949173338        4.4050372931       -1.3171716331
 C       -10.9236889294        2.2176960120       -0.9856502793
 C       -10.5226989210        1.1829183217        0.1759524964
 O        -9.8145235849        0.2625013590       -0.2039069974
 C       -10.8926063241        1.2443522745        1.6407692453
 C       -11.4676321409       -0.0363411525        2.0269663627
 C       -12.9238081161        0.1509432020        1.7226889347
 O       -13.2471463257        0.3859768952        0.5488883484
 C       -13.9736801187        0.0756160446        2.8696815388
 C       -13.7430252905       -1.4258527572        3.3968014103
 O       -13.7975322968       -1.6384518265        4.5531135142
 C       -13.4493821530       -2.6155345122        2.3712066710
 C       -13.0026116025       -3.8173755148        3.0698890560
 C       -11.6892867397       -3.5235945116        3.9194746207
 O       -11.4332516278       -2.4565528347        4.2377723367
 C       -10.8676111019       -4.8160746977        4.3116338833
 C       -11.8920229531       -5.7012666852        5.1385865702
 O       -12.1612057680       -6.7325104598        4.5999389920
 C       -12.5332705121       -5.1836068964        6.4072006374
 C       -10.0699266105       -5.6797191645        3.2567030114
 C        -9.7754462643       -4.2609489860        5.3762434077
 C       -13.9226265243        0.9860481061        4.1225297484
 C       -15.3734534680        0.0806494641        2.1686807428
 C       -12.0336748558        3.0580494222       -0.5388144137
 C       -11.1766883125        1.3463434848       -2.3150147681
 C        -5.0260084748        4.6706916088       -3.9317255949
 C        -3.9858404998        5.4076497815       -1.8327734186
 C        -8.0232357732       10.7068173960       -6.0413945989
 C        -7.6917811302       12.2336269579       -4.0374938837
 C       -12.3691620133        7.1574864518       -0.8561965513
 C       -12.3843109364        9.3797397522        0.4602795087
 H       -12.4630494356        7.5634993946        2.9350019991
 H       -10.9822987548        8.5475836952        3.0315982684
 H       -10.9050034134        6.8700178634        3.4904709032
 H       -10.6304895451       10.6247266143       -0.7691474476
 H       -11.3026462815       10.2517172226       -2.3704493826
 H        -8.2949453769        9.8117740959       -1.7738231794
 H        -8.9126431981       11.4579119816       -2.2497944471
 H        -6.9472645687        8.3473755898       -5.5655041861
 H        -7.8942660249        7.8173782189       -4.1321831697
 H        -4.7201256433        8.2208301958       -3.9855936774
 H        -5.4010823864        6.8589877227       -4.8315080915
 H        -6.8688430023        2.9043344910       -3.6632132619
 H        -8.0616154308        4.0805647210       -3.1662637188
 H        -7.6935409309        2.1014384501       -0.9199547692
 H        -8.4646554061        1.5777917504       -2.3642638538
 H       -11.5275201273        2.0974439978        2.0054847156
 H        -9.9484436969        1.3666493728        2.2542867199
 H       -11.1869391843       -0.3347917789        3.0494165028
 H       -10.9696497305       -0.8763269615        1.4193273988
 H       -12.7360368461       -2.3250337647        1.5238833520
 H       -14.4112346099       -2.6177422867        1.9519307338
 H       -12.8936047046       -4.7359434248        2.4463458634
 H       -13.8145622595       -4.0573743625        3.8236687034
 H       -11.8958260517       -5.4720582096        7.3111798157
 H       -13.4161856344       -5.7765620872        6.5846172979
 H       -12.6648205498       -4.0628408254        6.3880864157
 H       -10.3955740603       -5.4267483157        2.2607698179
 H       -10.1910922782       -6.7612780621        3.5818235196
 H        -9.0137410413       -5.4024256632        3.4628107611
 H       -10.1547398735       -3.3950353372        5.9583823361
 H        -8.9255172329       -3.8950902553        4.8547078445
 H        -9.4929967927       -5.0659030970        6.0156398768
 H       -14.5769814124        0.4968300680        4.8596490785
 H       -14.5373092935        1.8380117577        3.7817294303
 H       -12.9257528976        1.1432995797        4.5408400748
 H       -16.0096564447        0.8290116662        2.6435886713
 H       -15.8640149720       -0.7738985238        2.3409180532
 H       -15.4791936771        0.1239164520        1.0910151450
 H       -12.9125257306        2.4473448113       -0.5073428185
 H       -12.2868185397        3.9212659513       -1.2780333119
 H       -11.7901881888        3.3409828184        0.5297390817
 H       -11.3040019627        2.0653258850       -3.1198756002
 H       -12.1736630892        0.9447979900       -2.2597103733
 H       -10.3940101908        0.6821266664       -2.5281167615
 H        -4.5418986697        3.5815811584       -4.0402998722
 H        -4.2913562207        5.2715777460       -4.4299992135
 H        -5.7873444485        4.7828011201       -4.5545812283
 H        -3.1195854862        5.5500840854       -2.4373730767
 H        -3.8061147661        4.4821609255       -1.3913843022
 H        -3.9640751456        6.0183404032       -0.8734471692
 H        -8.5040933457       11.5733143557       -6.5536786197
 H        -8.6655014434        9.9249522898       -6.3055876449
 H        -7.1812185410       10.4368717635       -6.6542737040
 H        -8.6741367156       12.8376347437       -4.3151750316
 H        -6.8555136462       12.9353996323       -4.4177049898
 H        -7.5846998505       12.3506844793       -2.8974439976
 H       -12.9482675467        6.4254545371       -0.3579208710
 H       -11.6484655266        6.4810157074       -1.3380580527
 H       -12.9787171131        7.7845929998       -1.6399742429
 H       -13.1395677746        8.9410046158        1.0380838147
 H       -12.9643005064        9.8559651444       -0.3443211769
 H       -11.8057114532       10.0577762497        0.9974075911
 Na       -8.2783861792        5.9127410084       -0.4714828494
