117

 C       -11.1681903741        7.9478384986        2.6515871664
 C       -10.5351215316        7.5076304175        1.2455859169
 O        -9.6703705572        6.6686683600        1.1423063671
 C       -11.2513752449        7.9749910687       -0.1618987822
 C       -10.0999560867        8.5188393584       -1.0969209552
 O        -9.3719611247        7.7565623548       -1.8049852517
 C       -10.1971959538       10.0218651632       -1.4879012506
 C        -8.8247361416       10.4861560613       -2.1238332453
 C        -8.8692639940       10.2945645966       -3.7190703197
 O        -9.8790078974        9.7569778704       -4.1846771428
 C        -7.5605801066       10.3955205036       -4.6058304761
 C        -6.4473067298        9.3831987539       -4.3144210101
 O        -5.5044791261        9.7539281297       -3.6919802957
 C        -6.8010007363        7.9574780339       -4.6395397125
 C        -5.5954896133        6.9942868368       -4.1047320912
 C        -5.9338063588        6.2420126943       -2.8440463293
 O        -6.7697904139        6.9053096875       -2.1151440594
 C        -5.3275146593        4.9221039123       -2.4392595429
 C        -6.5291044879        4.1267500183       -1.5942901093
 O        -6.6981043328        4.4183164907       -0.3821671929
 C        -7.6031028869        3.2353192006       -2.4292287933
 C        -8.5378218759        2.6167944383       -1.3705672544
 C        -9.8537908995        3.2790505288       -1.1193527749
 O        -9.7989254918        4.4589265472       -1.0301655147
 C       -11.1349736725        2.4822067219       -0.9489277856
 C       -10.7820821384        1.2556476750       -0.1154898745
 O       -10.1364133548        0.3726391614       -0.6463748926
 C       -10.7336419185        1.2871070138        1.3560848513
 C       -11.7504379951        0.5029290358        2.2168957464
 C       -13.1636466172        0.3298889550        1.5355629132
 O       -13.2688570891        0.4973543068        0.2914710080
 C       -14.3280322962       -0.0608002284        2.4763364634
 C       -14.2445658531       -1.3681142248        3.3087395185
 O       -14.7670652146       -1.3942272391        4.4318338803
 C       -13.7915666260       -2.6959534820        2.5794087913
 C       -12.9648923478       -3.6216019845        3.5050743023
 C       -11.5559203959       -3.2134476407        3.9586832825
 O       -11.0924322789       -2.1193688066        3.8137544299
 C       -10.6718828523       -4.3552241303        4.6750841517
 C       -11.5227307876       -5.2870934009        5.6085125000
 O       -11.5491726431       -6.5122653594        5.4053849403
 C       -12.2655160896       -4.6198730781        6.8178816392
 C       -10.0954467739       -5.1860881403        3.4653370141
 C        -9.5694598534       -3.8035196481        5.5475830161
 C       -14.6631856337        1.1020040642        3.4975073779
 C       -15.5276551776       -0.5495388420        1.5403818007
 C       -12.3357869552        3.2656106716       -0.1770636720
 C       -11.5775190496        2.0826560484       -2.3236002805
 C        -5.0020556562        3.8920187871       -3.7505954705
 C        -4.1158614776        5.1459060115       -1.5529712866
 C        -8.1756475334       10.2555841082       -6.0640779526
 C        -6.9581352110       11.8803362547       -4.5560577680
 C       -11.9057998644        6.7199887564       -0.7256238875
 C       -12.4107156565        8.9473837889        0.0418464705
 H       -11.8437819742        7.2670465522        3.0829069214
 H       -11.5360509797        8.9401721357        2.6356730850
 H       -10.2819374066        8.1463652509        3.3580143690
 H       -10.2380096770       10.6279645624       -0.5897942388
 H       -11.0478644675       10.2323311389       -2.1969033516
 H        -7.9273149046        9.8701105896       -1.6876556387
 H        -8.6711163303       11.5056112308       -1.7850506249
 H        -6.9333772816        7.8273816817       -5.7311515790
 H        -7.7814107550        7.7623296428       -4.1535181234
 H        -4.7957109366        7.6840615547       -3.7362724636
 H        -5.2498721811        6.4203853043       -4.9692009317
 H        -7.1189175064        2.4479901032       -3.1675442951
 H        -8.2032792577        3.8472524482       -3.1928145081
 H        -7.9783109023        2.6086068636       -0.4830029839
 H        -8.7224306907        1.5668907838       -1.6506961030
 H       -10.8371352320        2.3158914979        1.6370180103
 H        -9.7099099688        0.8267221218        1.5707160395
 H       -11.7834012550        1.0152419211        3.2416863632
 H       -11.2683441698       -0.5599695456        2.3532197520
 H       -13.5393251993       -2.4778030971        1.4695507930
 H       -14.6418696813       -3.3276273594        2.4015296116
 H       -13.1249739038       -4.5755688953        2.9837598304
 H       -13.6432566150       -3.7218369313        4.3969967726
 H       -11.4652371585       -4.4235875152        7.6482861159
 H       -13.1114263406       -5.1459524918        7.2288655258
 H       -12.6011973436       -3.6536693530        6.5301575097
 H        -9.9981609492       -4.5441189498        2.5830884988
 H       -10.7751274975       -6.1661447630        3.4429849502
 H        -9.0593121402       -5.3904273176        3.6761318893
 H       -10.0719113480       -3.5447347880        6.4470503462
 H        -9.0229492247       -2.9757632055        5.1607517351
 H        -8.8877176971       -4.5920151770        5.8542502322
 H       -14.5476022672        0.7478836254        4.5427939125
 H       -15.6497509903        1.4417209096        3.1774969907
 H       -13.9668127677        1.9459405193        3.3468268085
 H       -15.6756093271       -1.7107854673        1.3910027228
 H       -15.1543363941       -0.2810443659        0.5771426475
 H       -16.4891159079       -0.1035703673        1.5835619692
 H       -13.0851909209        2.5113734524        0.0015063169
 H       -12.7346746940        4.1399999350       -0.7355432587
 H       -11.9949833658        3.7742667206        0.6792690537
 H       -11.7948959243        3.0318970623       -2.7758103318
 H       -12.5762746794        1.5049310561       -2.3277130425
 H       -10.7935247850        1.4689958082       -2.7601129375
 H        -4.6589180620        2.8606692397       -3.5987824580
 H        -4.1950731643        4.2140321904       -4.2778581419
 H        -5.8825840890        3.8626982698       -4.4098274184
 H        -3.3811343665        5.9065139102       -1.7998033375
 H        -3.5387116028        4.3002300902       -1.6354554721
 H        -4.3762661965        5.0466014463       -0.4958373455
 H        -8.8150987106       11.0592070610       -6.4252440225
 H        -8.8376458723        9.4600594008       -6.2928206738
 H        -7.4358466432       10.2742267556       -6.8367569224
 H        -7.7215329423       12.6550527613       -5.0042163416
 H        -6.1108725588       12.1686807692       -5.3589355693
 H        -6.6600731298       12.3232946021       -3.5666647083
 H       -12.5860763036        6.2242345396       -0.1199827999
 H       -11.1936747742        5.9757890948       -1.0680224743
 H       -12.5327105881        7.0577917454       -1.6314100687
 H       -13.3971836854        8.5142746854        0.3544239167
 H       -12.5272333754        9.5063773677       -0.7945827378
 H       -12.0761683474        9.6402682906        0.8717708364
 Na       -8.1682280495        6.3123846913       -0.6249340191
