117

 C       -11.1538191481        8.2276993337        2.4718601739
 C       -10.4868339208        7.6951256924        1.2077249401
 O        -9.4664534837        6.9952154350        1.3015578485
 C       -11.0939059325        8.1014937448       -0.2475203120
 C       -10.0009695480        8.7361135533       -1.1904187085
 O        -9.3020676306        7.9816443346       -1.7980124579
 C        -9.8653037200       10.2513428017       -1.2601603312
 C        -8.6452482708       10.5180855236       -2.2011105874
 C        -8.8757631587       10.1376001622       -3.6384168476
 O        -9.9531829677        9.8832985467       -4.0712869386
 C        -7.6049021228       10.1902584519       -4.6708678524
 C        -6.4392426298        9.1538319666       -4.3902808254
 O        -5.4279932542        9.5967641280       -3.8164037332
 C        -6.4945442310        7.6261881975       -4.9649450380
 C        -5.5510175873        6.6321608180       -4.3214967859
 C        -6.0193747953        6.1078477251       -3.0321142546
 O        -6.6474989635        6.7561520274       -2.3140480257
 C        -5.3218484712        4.6552342138       -2.4696315700
 C        -6.4767259939        4.0262970330       -1.4374812020
 O        -6.5539235246        4.3902058356       -0.3319798513
 C        -7.6228377885        3.1427096210       -2.2720123552
 C        -8.7942218713        2.3435737219       -1.4698523983
 C        -9.9600206419        3.1748364367       -1.0658753183
 O        -9.7287446296        4.3912997869       -0.8542499224
 C       -11.2508495819        2.5426674802       -0.8691923736
 C       -11.0226310501        1.0879754208       -0.0601510612
 O       -10.6704660059        0.0986433309       -0.6342038347
 C       -10.9371405569        1.2472095925        1.4339056103
 C       -11.9193179546        0.4613425461        2.3177246963
 C       -13.1716724600        0.2279586023        1.5464962123
 O       -13.1420712067        0.3351203660        0.3439400072
 C       -14.6239490135       -0.2062434104        2.1786750870
 C       -14.3259770463       -1.4021612590        3.2011247090
 O       -14.6877261732       -1.3785472788        4.3070228709
 C       -13.4890358210       -2.5832290778        2.6438698759
 C       -12.9914167422       -3.4887095560        3.8227677964
 C       -11.5961068823       -3.1899394961        4.1044240103
 O       -11.1438965902       -2.1315851047        3.6347293533
 C       -10.6570351930       -4.1607693688        4.7701504662
 C       -11.3919294837       -5.0821337287        5.8781462599
 O       -11.3399538971       -6.2424217249        5.7281414257
 C       -12.0269430381       -4.4398373802        7.0945664146
 C       -10.0584444222       -5.0793973163        3.6661840255
 C        -9.4825383602       -3.2341458455        5.3933962080
 C       -15.2792943683        1.1237277611        3.0196900565
 C       -15.7291667281       -0.2425261054        1.0373680516
 C       -12.2686352509        3.4326683034       -0.2076755998
 C       -11.8426249457        2.2591426076       -2.3002097013
 C        -4.8376634326        3.7281080288       -3.5907227106
 C        -4.1740423802        5.1066754610       -1.5486124420
 C        -8.0323322288       10.0381201198       -6.0759217566
 C        -7.1141472801       11.5745207901       -4.2823119125
 C       -11.6238378590        6.7753191419       -0.9639065027
 C       -12.2271406325        9.1664161766        0.0125966150
 H       -12.0027509332        7.5399909011        2.4991073842
 H       -11.5281638326        9.2801348701        2.4491081875
 H       -10.5774580507        8.1526593571        3.4204029331
 H        -9.7049540811       10.7572503550       -0.3028445140
 H       -10.7371137329       10.5964827967       -1.7670204857
 H        -7.9122295948        9.7987997149       -2.0996777425
 H        -8.2117261227       11.5215181779       -1.9272086480
 H        -6.2905449147        7.6874906851       -6.0533921979
 H        -7.5010558986        7.1998860724       -4.8075567436
 H        -4.6542625806        7.2441547586       -4.0351808295
 H        -5.2572927062        5.8283591654       -5.0274748097
 H        -7.0127614406        2.3159000572       -2.5888814971
 H        -7.9169296457        3.5672373956       -3.1561355644
 H        -8.2652263640        2.3465503576       -0.4535646508
 H        -9.0145752367        1.3491665889       -1.8329182199
 H       -11.1336260180        2.3540177308        1.6019655764
 H       -10.0057653476        0.8533579968        1.7528182298
 H       -12.1633673654        1.0659372269        3.1257148925
 H       -11.4343215800       -0.3933210210        2.6264082600
 H       -12.7237091228       -2.2561198007        2.0432461822
 H       -14.0144810415       -3.1522171107        1.8266232628
 H       -13.3212759387       -4.4908011615        3.5003539934
 H       -13.5831463677       -3.2499352403        4.7164502969
 H       -11.4299756418       -4.5685821904        7.9333954293
 H       -12.9952390167       -4.9505491671        7.2385819761
 H       -12.3155440232       -3.3280691989        7.0120246274
 H        -9.2388775724       -4.6418338998        3.1337635120
 H       -10.8735040285       -5.3846880955        3.1643655414
 H        -9.6143914050       -5.9185624117        4.2337989081
 H        -9.6547290859       -2.8524289788        6.4360198513
 H        -9.1948542545       -2.4846537732        4.6619901438
 H        -8.6177047354       -3.8546100507        5.5143263098
 H       -15.0439646813        0.9952932748        4.0561327495
 H       -16.3143807322        1.3728940546        2.7229369049
 H       -14.7028249800        2.0026852989        2.6573421064
 H       -15.3362014219       -0.6378141238        0.1217447454
 H       -16.1328375009        0.6535973869        0.6927474539
 H       -16.5460542332       -0.8900538894        1.4096179530
 H       -13.1336169286        2.7881686860       -0.2364843775
 H       -12.4085532351        4.3604122394       -0.7400422958
 H       -12.0711137394        3.8766859158        0.8265027696
 H       -12.0397753479        3.1692021795       -2.9175709230
 H       -12.6683326021        1.6870395575       -2.1197975564
 H       -11.2264273587        1.4736510180       -2.6478397413
 H        -4.6485880842        2.6661328150       -3.0808944411
 H        -3.7999513461        3.9487986289       -4.0798418933
 H        -5.5596116180        3.3909163313       -4.2727296884
 H        -3.3264411811        5.4366924219       -2.0983112449
 H        -3.7318996602        4.5008259108       -0.7148460438
 H        -4.6757255845        5.9429478178       -1.0145762373
 H        -8.8069209733       10.7207714767       -6.4253644205
 H        -8.5972833295        9.1473869317       -6.2678375905
 H        -7.3453940623       10.2202104645       -6.8877642879
 H        -7.8260282753       12.3351692930       -4.3819304439
 H        -6.3753035251       11.9464700013       -4.8619348231
 H        -6.7759952759       11.6100624019       -3.3178300479
 H       -11.9700957100        5.9680644258       -0.2673349296
 H       -10.8101627228        6.3816643507       -1.6515290277
 H       -12.5051849971        6.8746245304       -1.6144261950
 H       -12.8140033539        8.8955202104        0.8108985245
 H       -12.8456824998        9.1996101001       -0.9486581997
 H       -11.9277877841       10.1387984629        0.1861080780
 Na       -8.4863440026        6.0646740129       -0.5002239483
