117

 C        -3.6562794193       10.6914013862        4.5905253086
 C        -4.8491912330        9.9301498079        4.0215135558
 O        -5.3530343438       10.2139214444        2.9313755465
 C        -5.6903915837        8.7835754427        4.8799937320
 C        -5.4345594213        7.4084876525        4.1331684435
 O        -4.8651844069        6.4810434127        4.7358850259
 C        -6.0506958773        7.1920390177        2.7527282943
 C        -6.3194644193        5.7327562964        2.6449104965
 C        -7.2032162078        5.1922550897        1.4801684672
 O        -8.4244416165        5.0431362634        1.5105335833
 C        -6.4242454223        4.6692609933        0.1659958487
 C        -6.1685773544        3.1050533912        0.3411453608
 O        -5.0377161677        2.6067301292        0.2688000671
 C        -7.3544268850        2.2807377734        0.8445699000
 C        -7.5002551682        1.0113702042       -0.0452315241
 C        -8.5973837890       -0.0237865227        0.4471528426
 O        -9.5619904766       -0.2458932481       -0.2140952875
 C        -8.4549949771       -0.7274152404        1.8228631181
 C        -9.2463619906        0.1522306982        2.8067707825
 O        -8.5725151042        0.9447935416        3.4910690990
 C       -10.7850859636        0.3703276877        2.7774264383
 C       -11.2949825081        1.7976020687        3.0478080526
 C       -11.1629366600        2.6083652290        1.7268040932
 O       -10.3705627991        2.1753201908        0.9089132657
 C       -12.1529622722        3.7111608050        1.3563263554
 C       -13.1939490848        3.0310539691        0.3884746820
 O       -12.7449515547        2.1687827632       -0.3665805876
 C       -14.6340069442        3.5363614437        0.4258151495
 C       -15.3194861468        3.2953615375       -0.9463272491
 C       -14.7661250615        4.3262546309       -1.9196994810
 O       -13.7649881388        4.9674332440       -1.5773071581
 C       -15.2180817029        4.6067385556       -3.3850552677
 C       -14.1474229786        3.9903710640       -4.2675913441
 O       -14.2135239134        2.8786639359       -4.7046873155
 C       -12.8843379117        4.7819976370       -4.6795397918
 C       -11.6510972995        4.1329261966       -5.2795853229
 C       -11.1101582466        3.0463634540       -4.3932495955
 O       -11.3204874072        3.0895893683       -3.1846508045
 C       -10.3045128764        1.8141986770       -4.9131283988
 C       -11.0591559383        0.4392915043       -4.4616791037
 O       -11.2209134162        0.3426983565       -3.2442834890
 C       -11.6205608424       -0.7309508120       -5.3533670104
 C       -10.0022372236        1.7227345876       -6.4188806478
 C        -8.9281318304        1.8129663257       -4.1278894853
 C       -16.5982431198        4.0936239500       -3.6618375837
 C       -15.2109062678        6.1767054631       -3.5837212266
 C       -12.8483679244        4.3248338560        2.5973128579
 C       -11.5009384120        4.8346548387        0.4874067742
 C        -9.0958031178       -2.1108829419        1.7929858314
 C        -6.9526885356       -0.8348404381        2.2282255501
 C        -7.4958332092        4.9575967079       -0.8958494504
 C        -5.0828225740        5.3675143184       -0.1350093869
 C        -5.2236892045        8.5765111536        6.3363800570
 C        -7.2136505817        9.2443141586        4.7697900172
 H        -3.9473279599       11.4383473975        5.3494110823
 H        -2.9567803038       10.9556260188        3.8449328117
 H        -3.0688313316        9.8497236035        5.0685272584
 H        -5.3579614729        7.6890872326        2.0266310645
 H        -6.9570273683        7.8094745869        2.6897384921
 H        -6.7393241296        5.3030725765        3.5205748918
 H        -5.4287318541        5.1369887566        2.6156402063
 H        -8.3079366048        2.7054037538        0.9989335338
 H        -7.0038983283        1.9469179936        1.8572010709
 H        -6.5320985472        0.5784823603       -0.1309524223
 H        -7.9150638951        1.3171904876       -1.0128786087
 H       -11.3318639451       -0.2011392884        3.5527996332
 H       -11.2127771240       -0.0072103344        1.8497435474
 H       -10.7311206925        2.2525517219        3.8765295480
 H       -12.3615743929        1.7282548129        3.3135816986
 H       -14.7608798778        4.6563251441        0.5634930706
 H       -15.2426919739        3.0023991418        1.1834917085
 H       -16.3684571766        3.5169338619       -0.8871858915
 H       -15.2237565314        2.2697798550       -1.2441531893
 H       -12.5753130459        5.2587673515       -3.7301821533
 H       -13.0584390102        5.5376496926       -5.3956062426
 H       -10.7456246455        4.7668034253       -5.3702766713
 H       -11.8034511929        3.8613772477       -6.3766794947
 H       -11.1571444856       -0.7820862488       -6.3157143633
 H       -12.7541374264       -0.6449128728       -5.4352512489
 H       -11.4047382583       -1.6198547331       -4.8078242743
 H        -9.4845301970        2.6520660669       -6.8212481847
 H       -10.9288078859        1.7322580455       -6.9526840315
 H        -9.4208860751        0.8626922532       -6.6053492170
 H        -8.9779146414        1.8363970530       -2.9896482840
 H        -8.2894351820        2.6187053344       -4.4321739217
 H        -8.4732867332        0.9057386396       -4.3228617788
 H       -16.5172755152        3.0106502476       -4.0130572774
 H       -17.1280846823        4.6504917177       -4.4692224248
 H       -17.2869473285        4.1840318876       -2.8267420422
 H       -15.0156354981        6.4509812020       -4.6370451035
 H       -14.3032194167        6.5264569037       -3.0004463688
 H       -16.0567575261        6.7179211451       -3.2706010539
 H       -12.0751239636        4.5275195642        3.3959683923
 H       -13.5390436261        3.5591233389        3.1270380329
 H       -13.4188252046        5.2447281506        2.3241005105
 H       -10.7787900960        5.4525199818        1.0977239259
 H       -12.2472595570        5.5140796349        0.0957442152
 H       -10.8819045284        4.4162497765       -0.3438564962
 H        -9.5019384364       -2.3315031326        2.8516287220
 H        -8.4324061098       -2.9099392798        1.5121932619
 H        -9.8683591480       -2.1342212807        1.0920685853
 H        -6.4360620955       -1.7399235626        1.9301110861
 H        -6.9255026803       -0.7649529992        3.3232141108
 H        -6.3973385373       -0.0469558282        1.8053204808
 H        -7.8256433950        5.9610290750       -0.7851645322
 H        -8.4697818755        4.4006361791       -0.7865805302
 H        -7.1451471146        4.6817701426       -1.8674383354
 H        -5.2296258425        6.4264062077       -0.2880086522
 H        -4.6985828134        4.9012031565       -1.0459056981
 H        -4.4615889021        5.2684056376        0.7135233275
 H        -4.3566681019        7.9367581172        6.4741594402
 H        -6.0999317596        8.0918422582        6.8454086353
 H        -4.9910568312        9.4946452058        6.8669261663
 H        -7.5735724654        9.1609815737        3.7512529859
 H        -7.2736174125       10.2508947492        5.1022675162
 H        -7.9064462951        8.7261150778        5.4344141496
 Na      -10.8153909510        1.5019723415       -1.3937127381
