117

 C       -10.9721627577        8.7342236080        2.5215882318
 C       -10.3775982611        8.3058384001        1.1535189296
 O        -9.2984319473        7.6107921265        1.2187069823
 C       -11.0471203410        8.6332686982       -0.2798626591
 C        -9.6770145199        8.9749132216       -1.1124516844
 O        -8.9651631528        8.0953152303       -1.5892465712
 C        -9.3444856831       10.4370222606       -1.3066999796
 C        -8.1093904002       10.5702741180       -2.2127627273
 C        -8.2908241110        9.9142884869       -3.6045161845
 O        -9.3764183002        9.4449793647       -3.7914630550
 C        -7.2421615083        9.8971429827       -4.7973329276
 C        -6.4639131899        8.6361505748       -4.3753548631
 O        -5.6160410773        8.8842995918       -3.5059985254
 C        -6.6706998040        7.3483396778       -5.0728515677
 C        -5.7294681830        6.1898129202       -4.5059005835
 C        -6.2538180151        5.7350035687       -3.1211407397
 O        -7.1809397397        6.3682466068       -2.6449168898
 C        -5.6432963123        4.5102266477       -2.4574591983
 C        -6.8142089534        3.7413612183       -1.5580990561
 O        -6.9924705933        4.0348124095       -0.4095274283
 C        -7.7185810702        2.7894646230       -2.3212302106
 C        -8.6668862532        2.1175351122       -1.3575295284
 C        -9.8510535860        2.9805658724       -0.9124870490
 O        -9.8234538630        4.2309785308       -0.6856111126
 C       -11.2352407923        2.3439287434       -0.8610411388
 C       -10.9106290075        0.9706896507        0.0753815075
 O       -10.5290582533       -0.0398944937       -0.4275858719
 C       -11.1275311655        1.0626644376        1.5746558272
 C       -12.5632776090        0.8998486856        2.1651320444
 C       -13.7566382843        0.3301076943        1.2249498696
 O       -13.7825191992        0.6547614538        0.0285302027
 C       -15.0367128677       -0.2939018402        1.9241894699
 C       -14.4437793173       -1.3935486015        3.1473407139
 O       -14.7523070211       -1.1804352783        4.2572284027
 C       -13.6791981872       -2.6925891038        2.6675798685
 C       -12.9075039721       -3.3410796693        3.8109231658
 C       -11.4929104238       -2.7883081893        4.0552938380
 O       -11.1037268844       -1.7546361379        3.5975604971
 C       -10.5042583390       -3.6862550709        4.9265093699
 C       -11.2152998613       -4.3913610913        6.1123231526
 O       -11.2562061614       -5.5950075876        6.2674499100
 C       -11.6093187535       -3.5932038258        7.3472214038
 C       -10.0342867905       -4.8460810274        3.9170863574
 C        -9.3497763592       -2.8973307772        5.5013486773
 C       -15.9364780629        0.7813765963        2.3561829341
 C       -15.8423446524       -1.2766354406        0.9671196187
 C       -12.2556042485        3.3176057034       -0.2592737889
 C       -11.7568897837        1.7461331109       -2.2525850535
 C        -4.8690326735        3.5754696309       -3.4306351185
 C        -4.6787649958        5.0619782468       -1.3117790051
 C        -8.0694634822        9.6048825028       -6.0742973100
 C        -6.3921332701       11.2145122565       -4.9515221906
 C       -11.6480809392        7.2647757990       -0.7492058907
 C       -12.0326216313        9.7957587476       -0.2217547268
 H       -11.8513585262        9.2131362120        2.3533591976
 H       -10.3880270249        9.3442910136        3.2557575001
 H       -11.2268160207        7.6977211205        3.0404542192
 H        -9.1537820167       10.9448262003       -0.3497410846
 H       -10.2254438358       10.7845158652       -1.8574006871
 H        -7.3650350819       10.0023847311       -1.7509816110
 H        -7.6540596390       11.6259486705       -2.4365299865
 H        -6.6284711690        7.4546578075       -6.2005864942
 H        -7.7066313547        6.9348087160       -4.8932609223
 H        -4.7584390005        6.7434798531       -4.2512774123
 H        -5.6466663057        5.3969699128       -5.2786916855
 H        -7.2868339275        2.0431068854       -2.9724536950
 H        -8.2340539083        3.4053429909       -2.8946354020
 H        -8.1274648040        1.6211569636       -0.5783837447
 H        -9.1783812858        1.4071282297       -1.9791063933
 H       -10.7463836369        2.1123444958        1.9745703943
 H       -10.5908584281        0.1815725362        1.9415452036
 H       -12.8839003212        1.8594081092        2.5086138797
 H       -12.4757975482        0.1651200341        2.9688262521
 H       -13.1553475169       -2.4177034045        1.8092145512
 H       -14.5278419459       -3.2352829102        2.2478594717
 H       -12.8784978176       -4.4469054943        3.5559757884
 H       -13.6345745992       -3.1652124929        4.6473335195
 H       -10.9985172077       -3.8966964654        8.2152444257
 H       -12.6716173624       -3.7966097033        7.5225571324
 H       -11.6639928388       -2.4596014296        7.3041386429
 H        -8.9614206237       -4.8847534021        3.9822090290
 H       -10.2422448432       -4.5842493555        2.8635239438
 H       -10.4260861005       -5.8633578395        4.2908592204
 H        -9.8064768838       -1.8956141294        5.7500367242
 H        -8.5737921482       -2.6472857581        4.8296506162
 H        -8.9258941263       -3.3133045442        6.3602841642
 H       -15.2705932449        1.5844441386        2.5647788170
 H       -16.6374506323        0.5884730017        3.2132861513
 H       -16.5854312025        1.0094016494        1.4536163258
 H       -15.2766641884       -1.9235646776        0.2790835815
 H       -16.5060774368       -0.7135476562        0.4643137485
 H       -16.3555235948       -1.9204921771        1.5994144835
 H       -13.2018392994        2.9062515854       -0.0847184117
 H       -12.2837542087        4.1667105835       -1.0002002017
 H       -11.8037016168        3.7369495006        0.7307389782
 H       -11.7573350177        2.6391684795       -2.9123501476
 H       -12.6344664400        1.1818767010       -2.1701319716
 H       -11.0516947942        1.0260514294       -2.6074649099
 H        -4.7204791461        2.6787800018       -2.6714620096
 H        -3.9998311071        4.0696580493       -3.9552273935
 H        -5.3228523151        3.0539499572       -4.2513171375
 H        -3.9442610478        5.7178048650       -1.6889681425
 H        -4.2050394323        4.2843412435       -0.7491753700
 H        -5.2814685670        5.7315637997       -0.6433406409
 H        -8.5208276195       10.4898785566       -6.5801352081
 H        -8.8136563502        8.8845090903       -5.9820405359
 H        -7.5413906593        9.1873169026       -6.9231604683
 H        -6.9003135346       12.1469541408       -5.1633624340
 H        -5.5244932990       11.0658346534       -5.6548352112
 H        -5.8847112559       11.4869992174       -4.0786448143
 H       -12.6030621553        7.1303394160       -0.3579589289
 H       -10.9568663912        6.4102058122       -0.6010976964
 H       -11.7904883555        6.9989496844       -1.8814314559
 H       -13.0301352600        9.4548745514       -0.2785564035
 H       -11.8813088476       10.4632071639       -1.0470411905
 H       -11.8722766912       10.3723784967        0.6395838201
 Na       -8.2004890594        6.1433256809       -0.4922241361
