117

 C       -10.7704524957        9.0944882381        2.6279109666
 C       -10.3090638111        8.4555367195        1.3400928217
 O        -9.5188045784        7.5637193651        1.3640520979
 C       -10.6961426738        9.0012123891       -0.1498936815
 C        -9.3017959211        9.1690903324       -0.9916116245
 O        -8.5567628262        8.1849352448       -1.2247478016
 C        -8.8556824669       10.5583433765       -1.4163095179
 C        -7.8738267568       10.6222968224       -2.6243961931
 C        -8.2304637956        9.8142130455       -3.8979207726
 O        -9.3315447419        9.4420633093       -4.2111921106
 C        -7.1000139852        9.6153761969       -4.9018647800
 C        -6.3331539473        8.3373850552       -4.5450042209
 O        -5.8253944058        8.3318911289       -3.3783387787
 C        -6.4951133723        7.0461393838       -5.2731603959
 C        -6.0020003839        5.7276451304       -4.4977072355
 C        -6.5830114138        5.4942783450       -3.1488202881
 O        -7.5618429196        6.0271136577       -2.7572446251
 C        -5.6722681637        4.4115744809       -2.3395692578
 C        -6.8080714927        3.5586463106       -1.4567269091
 O        -6.9743855299        3.9278425462       -0.3371544021
 C        -7.6733983556        2.6063301457       -2.3159129055
 C        -8.7389290890        1.9832126155       -1.5032493592
 C        -9.8507055456        2.7936865613       -0.9732571698
 O        -9.6290783380        4.0283573425       -0.8918195720
 C       -11.2107497142        2.2574387110       -0.7826068044
 C       -11.1713615757        0.9934944017        0.1595943927
 O       -10.4933738677        0.0716603563       -0.2145494499
 C       -11.7315328831        0.7998979552        1.5827905668
 C       -13.1511210242        1.1288002955        2.0083299489
 C       -14.1361323283        0.2322100872        1.1585233661
 O       -13.8980233003        0.1095349310       -0.0439117172
 C       -15.2001434766       -0.8016793438        1.7883442317
 C       -14.4823392749       -1.3937992909        3.1194744847
 O       -14.6201682072       -1.0263693216        4.2275875330
 C       -13.5186806565       -2.5847018522        2.7980517250
 C       -12.8114636084       -3.1339688693        4.1157909424
 C       -11.4696416692       -2.5228610320        4.2115206854
 O       -11.3138705474       -1.3089877837        3.8775660528
 C       -10.3997447810       -3.3737458573        4.8356987596
 C       -11.2343339620       -3.8235412392        6.1922749315
 O       -11.5370575262       -4.9380414791        6.3344612639
 C       -11.6452598013       -2.7124325141        7.2347562627
 C        -9.9766787544       -4.6032914987        4.0861628328
 C        -9.0986284874       -2.4876711785        5.2258761081
 C       -16.3835411892        0.0523516254        2.4813201339
 C       -15.7659623191       -1.6919537351        0.7585228506
 C       -12.3209077743        3.1279287349       -0.2556396266
 C       -11.7813926831        1.8526250960       -2.1610421867
 C        -4.8163219933        3.4480567639       -3.2542137026
 C        -4.6413258016        5.2292665674       -1.4357133357
 C        -7.7523984912        9.5317653082       -6.2903058563
 C        -6.1079105356       10.7952363931       -4.8705689311
 C       -11.4655154751        7.8631136459       -0.8203700737
 C       -11.5215054558       10.2853632928       -0.1517709247
 H       -11.3658760982        9.8715051741        2.5085765194
 H        -9.9224249732        9.4892712921        3.1559674440
 H       -11.2599607450        8.2976779633        3.2769775788
 H        -8.3522748563       11.0219951532       -0.5046191041
 H        -9.7225395867       11.1377611852       -1.6984924492
 H        -6.9111364839       10.1427331632       -2.4380974202
 H        -7.5751913026       11.6969593834       -3.0241084690
 H        -6.1762079243        6.9436047775       -6.2900958398
 H        -7.5618712156        7.0464491221       -5.3603879676
 H        -5.0087366359        5.9738654899       -4.2739114084
 H        -6.1017412178        4.8270320049       -5.1197732184
 H        -6.8924750986        1.7825144685       -2.5261936126
 H        -8.0449126522        3.0498435288       -3.2711945593
 H        -8.2212370086        1.6759868768       -0.5558914037
 H        -9.1513364999        1.1146746051       -1.9547433932
 H       -11.0572232437        1.3255890494        2.3175624583
 H       -11.5091534487       -0.2324354054        1.8017198769
 H       -13.3192767001        2.2575787271        1.7957447591
 H       -13.2865677781        0.9768926953        3.1477826142
 H       -12.8798621680       -2.2568711856        1.9951891178
 H       -14.2079511768       -3.4035171237        2.3965514167
 H       -12.9365385674       -4.1726995586        3.8838232177
 H       -13.3782979425       -2.8689912416        4.9948595646
 H       -10.8516632901       -2.3669046086        7.7997569159
 H       -12.3942460891       -3.0970399087        7.9133903944
 H       -12.1310798934       -1.8166166481        6.7527005349
 H        -9.4746954493       -5.2689891588        4.7780291792
 H        -9.2069132150       -4.4595949285        3.4004799838
 H       -10.9543328730       -5.0464903666        3.6885663122
 H        -9.1652550149       -1.8664079318        6.1598403787
 H        -8.7800585654       -1.6822903839        4.5328563428
 H        -8.2801096248       -3.2030831265        5.3099046086
 H       -16.1608989305        0.2397373895        3.5161258836
 H       -17.1909877981       -0.6554939227        2.5147664518
 H       -16.6795088364        0.9611561402        1.9646081453
 H       -15.1587077105       -2.6605908097        0.9390035777
 H       -15.5925507440       -1.2899161258       -0.1728271059
 H       -16.7860845925       -2.0734120845        0.9460966729
 H       -13.1194515131        2.4796544772       -0.3833124852
 H       -12.5723225096        3.8698288496       -0.9597755812
 H       -12.2834429645        3.3423874490        0.8360762558
 H       -11.5948834994        2.7014664774       -2.8978385487
 H       -12.7788126993        1.6044270681       -1.8964604265
 H       -11.1918455575        0.9996838255       -2.6109821403
 H        -4.2723711811        2.6123948407       -2.5883969125
 H        -4.0726727100        4.1208490902       -3.6939463491
 H        -5.2692821706        3.0587678315       -4.0610454437
 H        -4.2491557372        6.1164785626       -1.8417085047
 H        -3.9110219622        4.5185321357       -0.9760254304
 H        -5.2414377478        5.6613183390       -0.6047376700
 H        -8.4175440992       10.3473903185       -6.5242191357
 H        -8.3393398578        8.6284133113       -6.4277970268
 H        -7.0842910632        9.3344714402       -7.1290811037
 H        -6.7178098947       11.7801683198       -4.8234989965
 H        -5.2170836265       10.7478538900       -5.7042172011
 H        -5.5056924185       10.7865185586       -3.8837686720
 H       -12.2360488081        7.4768741290       -0.2270417388
 H       -10.8683579113        6.9886675754       -1.0860264120
 H       -11.8646538678        8.0264827166       -1.8517583780
 H       -12.2668874253       10.3945668958        0.6564782975
 H       -12.2202165337       10.3172255987       -1.0663690593
 H       -10.8389595236       11.1622473888       -0.1567445853
 Na       -8.6032115060        6.0350689329       -0.3852237482
