117

 C       -10.5969159752        9.2125233232        2.6488632094
 C       -10.2347658547        8.5746796433        1.2867710542
 O        -9.6288114641        7.4445201261        1.3160924799
 C       -10.5301572908        9.0650997366       -0.1444314055
 C        -9.1281020267        9.2490286625       -0.9336560393
 O        -8.3802704236        8.2798224083       -0.9628801096
 C        -8.7830429430       10.5762356398       -1.4684495130
 C        -7.8471600649       10.5982628360       -2.6535760257
 C        -8.2510049162        9.8579724786       -4.0019401823
 O        -9.3832667643        9.5991957665       -4.2929229155
 C        -7.0190158821        9.5628460446       -5.0365000787
 C        -6.4417870968        8.1413161099       -4.4087470097
 O        -5.7415100444        8.1033207313       -3.4464097359
 C        -6.6026379230        6.9460499058       -5.3582356936
 C        -5.9520505228        5.6470111873       -4.6915859190
 C        -6.4948068606        5.3640961770       -3.1841535389
 O        -7.5828480247        5.7843850318       -2.7648157589
 C        -5.7086767017        4.4136805093       -2.2832982632
 C        -6.7709367335        3.6890921595       -1.3809865083
 O        -6.9458410303        3.9731411773       -0.2182380236
 C        -7.4917356989        2.4739574083       -2.0892371369
 C        -8.7508602483        1.8385305971       -1.4448598621
 C       -10.0031992429        2.7967221753       -1.0305243326
 O        -9.9118552979        4.0376350723       -0.8486633436
 C       -11.4647241410        2.1308997109       -0.7047288720
 C       -11.1992613509        0.8062080492        0.2192693776
 O       -10.4630498702       -0.0209169471       -0.2718155313
 C       -11.8363743275        0.8806119478        1.6749947741
 C       -13.3769046892        1.1584668602        1.8608914590
 C       -14.2108945423        0.1617304278        1.1025792825
 O       -13.9251367587       -0.0128413148       -0.1003699905
 C       -15.2975228097       -0.8245800796        1.8110200538
 C       -14.5170669339       -1.4982522273        2.9468757858
 O       -14.5706393985       -1.0114972006        4.0863007504
 C       -13.6983785249       -2.8693815718        2.7226593663
 C       -12.8177036310       -3.0248123527        3.9926692990
 C       -11.4226824326       -2.2757093371        4.1833463420
 O       -11.2788887431       -1.1235596311        4.0157259087
 C       -10.3524049440       -3.2985278543        4.9925306373
 C       -11.0777153155       -3.5656541379        6.2673272242
 O       -11.5722131102       -4.7109723614        6.3853737665
 C       -11.4713057359       -2.4363875335        7.1481661827
 C       -10.0011756888       -4.5383848666        4.1762237373
 C        -9.0056117286       -2.4536545005        5.4054626153
 C       -16.6268494841       -0.0272944371        2.4262242797
 C       -15.7967140494       -1.8062543053        0.7928254253
 C       -12.2705605749        3.4024096261       -0.1654492798
 C       -11.8390513732        1.6576486217       -2.1544324469
 C        -4.8216131461        3.5794064463       -3.2065241062
 C        -4.7854161581        5.1830569046       -1.4187105519
 C        -7.5342501280        9.4386565980       -6.4542397771
 C        -5.9637309855       10.6772106754       -4.8990445805
 C       -11.5213193570        8.0377418166       -0.7849243123
 C       -11.3200826640       10.4286552564       -0.1036092891
 H       -11.2335756813       10.2161308855        2.6047402791
 H        -9.7467366050        9.4840833650        3.2482097633
 H       -11.1552695444        8.4266957216        3.1533552615
 H        -8.3157211938       11.2231733248       -0.6726333561
 H        -9.7166602613       11.0658691521       -1.8348265830
 H        -6.8058952310       10.3212099317       -2.4827065490
 H        -7.8068901127       11.6834894695       -3.0493386898
 H        -6.1395632230        7.1090617759       -6.3618627980
 H        -7.6582923089        6.7922540192       -5.6703530156
 H        -4.8343793804        5.9328075186       -4.7080657308
 H        -6.2082850724        4.7252485466       -5.2233372985
 H        -6.7147603967        1.7717065994       -2.4210352820
 H        -7.9682280033        2.8764905009       -2.8587319872
 H        -8.6478541208        1.1590128852       -0.6626141701
 H        -9.1959406152        1.3376054388       -2.2925222313
 H       -11.2318889772        1.6832191090        2.3146360406
 H       -11.6327285106       -0.0178752354        2.3122699144
 H       -13.8495767160        2.1773045133        1.7097407094
 H       -13.5038277612        0.9074561574        2.9853822238
 H       -13.1284030588       -2.6854377932        1.8593679298
 H       -14.4143631138       -3.6999811197        2.6044362758
 H       -12.9833082973       -4.1335182540        4.0713279451
 H       -13.3728425708       -2.5360401852        4.8392516753
 H       -10.6236275817       -1.8016718017        7.6473087023
 H       -12.1254883170       -2.7408355644        7.9591439732
 H       -12.0573973244       -1.7469158998        6.5390579282
 H        -9.8417082975       -5.4071053612        4.7761913342
 H        -8.9231645162       -4.4255950063        3.7377779283
 H       -10.8150482209       -4.6437623094        3.4373034914
 H        -8.9661438178       -1.7861599899        6.3171271843
 H        -8.7791115671       -1.7071541992        4.6672221972
 H        -8.1747073068       -3.1131843677        5.4183884535
 H       -16.5302817331        0.2554825606        3.4255329873
 H       -17.4083863320       -0.7919235403        2.4482054242
 H       -16.8850157473        0.8617817371        1.8311733703
 H       -15.1207828396       -2.6055920167        0.8865370022
 H       -15.8354599839       -1.4205170467       -0.2147412817
 H       -16.6184051244       -2.2533435448        1.0918737971
 H       -13.2254433040        3.1858098698        0.1981214334
 H       -12.4852851589        3.9514484335       -1.0747459785
 H       -11.7043285583        3.7700785200        0.6711258707
 H       -11.5847147035        2.4978839658       -2.8630297146
 H       -12.8964710678        1.3114761439       -2.1595415804
 H       -11.0929548148        0.9778722182       -2.4243931881
 H        -4.3197813982        2.8841618500       -2.5776982500
 H        -4.0785421524        4.2086600427       -3.8179238464
 H        -5.5436721118        3.0138150970       -4.0158453833
 H        -4.2550638711        5.8812931989       -2.0131594786
 H        -4.2067306236        4.5152971771       -0.8835949819
 H        -5.2990426474        5.8902195249       -0.7194829728
 H        -8.1473472716       10.3609907200       -6.6497194208
 H        -8.2128532375        8.6684814826       -6.5992162192
 H        -6.8734575248        9.2206847721       -7.2793566382
 H        -6.4967373305       11.6166894201       -4.5569703686
 H        -5.2379289343       10.8821501166       -5.7237172281
 H        -5.2504969676       10.4248320632       -3.9497538539
 H       -12.2346964410        7.6865333150       -0.0944144091
 H       -11.0917611913        7.0423256253       -1.0808718598
 H       -11.9910548246        8.2781222095       -1.7951978250
 H       -12.3558204843       10.2979790148        0.2982110626
 H       -11.5174496105       10.7538212761       -1.0412908464
 H       -10.7891698866       11.2324141168        0.4655486294
 Na       -8.6453789765        5.8820135820       -0.4574245340
