117

 C       -10.4015066557        9.2846451179        2.4842466302
 C       -10.0930231456        8.4497369462        1.2499434016
 O        -9.7017308892        7.2730010972        1.3558361152
 C       -10.4181066576        9.1349464586       -0.1007584393
 C        -9.0704580027        9.2064008781       -0.8554250585
 O        -8.2858482154        8.3636931982       -0.7445411712
 C        -8.8316384476       10.6155773509       -1.7159929679
 C        -7.7038893608       10.5805284452       -2.7478230333
 C        -8.2048153465        9.9395672591       -4.0458895378
 O        -9.3862684869        9.7352447038       -4.3057655809
 C        -7.0345629656        9.4895798647       -4.9748992995
 C        -6.3882038073        8.0808574011       -4.5282229580
 O        -5.7591838023        7.9901130755       -3.5392602189
 C        -6.7432892005        6.7942143803       -5.3036442561
 C        -6.0610338423        5.6377329019       -4.6680066352
 C        -6.5870616741        5.2875145580       -3.2894483357
 O        -7.6789969413        5.7247829590       -2.9141183956
 C        -5.6233670670        4.3849294179       -2.2561069251
 C        -6.6654272366        3.6495496306       -1.3065669169
 O        -6.9749026484        4.0641227466       -0.1712429371
 C        -7.5079480642        2.4569831601       -1.9561794284
 C        -8.9107060871        1.8908338906       -1.3852051337
 C       -10.0170514163        2.7836670901       -0.9278211385
 O        -9.9676457688        3.9511830947       -0.9003196886
 C       -11.4122031013        2.1579342627       -0.7593765670
 C       -11.4241530492        0.9136294502        0.2157936887
 O       -10.6963043075       -0.0431613006        0.0031584226
 C       -11.9045589149        0.9545283976        1.6277183367
 C       -13.4532602137        0.9995308058        1.8648755101
 C       -14.2906405587        0.0112684894        1.0145942451
 O       -14.0713831840       -0.1707196846       -0.1346921794
 C       -15.3655060327       -0.9206242677        1.7206393662
 C       -14.5912791128       -1.5406882708        2.8958111773
 O       -14.5258119914       -0.9675428934        3.9939929373
 C       -13.7450108415       -2.8291424414        2.7853873525
 C       -12.7116692433       -3.0292763374        3.9558857085
 C       -11.3743060445       -2.2211937966        4.2637960052
 O       -11.1782921453       -1.0329972601        4.0619758236
 C       -10.3251236435       -3.0662578327        4.9406536311
 C       -11.1547770135       -3.3873973790        6.3530381576
 O       -11.5940910930       -4.5044451790        6.5747018422
 C       -11.3854133300       -2.2001597629        7.2323284982
 C        -9.9976135370       -4.3399916272        4.2151333790
 C        -8.9991445971       -2.3676662202        5.3335794845
 C       -16.5448633708       -0.0722588401        2.2456077840
 C       -15.8750265042       -1.9914923409        0.6137779366
 C       -12.2296975271        3.4085274546       -0.2227146055
 C       -12.0491827550        1.4908297656       -2.0768924730
 C        -4.7949017994        3.3734094232       -3.1356944682
 C        -4.8177421675        5.3592051927       -1.2645709231
 C        -7.3591181219        9.3812977484       -6.4719075589
 C        -5.7941072604       10.4640949603       -4.9113496244
 C       -11.4229712599        8.2541975340       -0.7984028045
 C       -11.1898854913       10.6403703906        0.0266563792
 H       -10.8129480142       10.3059965688        2.3230773735
 H        -9.4467951525        9.5477880522        3.0681465562
 H       -11.0807848342        8.7172955629        3.0975122276
 H        -8.4061931697       11.3395486794       -1.0589107800
 H        -9.7521776805       11.0662723834       -2.1729075761
 H        -6.8437518641        9.9270757167       -2.4498127984
 H        -7.3317995910       11.4983620169       -2.9523698641
 H        -6.3416342069        6.7829276758       -6.3669663937
 H        -7.8419129852        6.5731968927       -5.5446947872
 H        -4.9434662199        5.8485730094       -4.7882293169
 H        -6.4251739718        4.7468747330       -5.2284141053
 H        -6.9185416266        1.6618822515       -1.7352639227
 H        -7.6912241838        2.5108394595       -3.0728206444
 H        -8.6482573217        1.4558324732       -0.4461138673
 H        -9.3244569843        1.0371216236       -1.9860866450
 H       -11.4494720186        1.8712446054        2.0845075124
 H       -11.3590034279        0.1560851022        2.2693653786
 H       -13.9069497398        1.9036333094        1.5131849247
 H       -13.6372802212        0.9964880451        2.9016821217
 H       -13.2441706403       -2.7676242650        1.7889655728
 H       -14.4732162773       -3.5788489795        2.8740193419
 H       -12.6319297537       -4.0931362978        3.7472657988
 H       -13.2418424225       -2.9398647412        4.9719101851
 H       -10.3974358170       -1.7453512445        7.5170011571
 H       -11.8599070975       -2.4206975088        8.2385417935
 H       -11.9381766946       -1.3933384204        6.7374535268
 H       -10.2009691912       -5.1946198266        4.9184586981
 H        -8.9104309736       -4.5288339275        4.0400481817
 H       -10.5864114599       -4.3953232835        3.3379958192
 H        -9.0118234107       -1.7144122187        6.1410504644
 H        -8.6031000499       -1.7111023215        4.5757979132
 H        -8.2189190963       -3.1095325395        5.5326268105
 H       -16.2202481925        0.4842228544        3.1714718929
 H       -17.3153287494       -0.7381790065        2.6094047849
 H       -16.8090751526        0.6908377978        1.5393505249
 H       -15.1108773800       -2.5539464675        0.2534975655
 H       -16.4415231877       -1.5048337351       -0.1805518160
 H       -16.5100708027       -2.7145618735        1.1853799123
 H       -13.3138199174        3.0885808727        0.0479636884
 H       -12.3503032922        4.1359708515       -1.0281301643
 H       -11.7861993494        3.6039819909        0.6750401989
 H       -12.0341774347        2.1435749047       -2.8835665739
 H       -13.0757795579        1.2535121765       -1.7174186538
 H       -11.3737071893        0.7250851559       -2.3681955641
 H        -4.3985186999        2.6871738405       -2.4030244999
 H        -3.9401062425        3.6921883899       -3.8143643942
 H        -5.5982137396        2.8265555202       -3.7654576482
 H        -4.0555760644        5.9144309682       -1.8379167084
 H        -4.4079791756        4.7340161533       -0.5111144880
 H        -5.3580369623        6.1269031059       -0.8286517058
 H        -7.6097082438       10.3702768991       -6.8033312359
 H        -8.2054885074        8.7625045135       -6.8528452020
 H        -6.5393884425        8.9835424005       -7.0519531679
 H        -6.1072175922       11.4970393920       -4.8620570328
 H        -5.3392581117       10.3737553362       -5.8272963530
 H        -5.0159302122       10.3226239883       -4.2216766617
 H       -12.3203124801        7.9162595907       -0.1467122723
 H       -11.0449250623        7.1988977924       -0.9276229972
 H       -11.6759254133        8.5136103346       -1.7694897416
 H       -12.2171708397       10.4528997140        0.1708761653
 H       -11.1252979992       11.2436484302       -0.8961983598
 H       -10.8937898108       11.2631128023        0.8020025352
 Na       -8.6265978120        5.8124568474       -0.5514386256
