117

 C        -9.5104114972        8.7773067132        2.5293937330
 C        -9.8289824106        8.2498300418        1.1190094891
 O        -9.9034475505        7.0484061884        0.8917980225
 C       -10.1639130683        9.3119075915       -0.0982872435
 C        -8.6903898666        9.2852693138       -0.7992033339
 O        -7.9315267340        8.4162181277       -0.8180352585
 C        -8.4668620645       10.5570990912       -1.8480451521
 C        -7.2633422199       10.1823857478       -2.8219958632
 C        -7.6535739992        9.8667568142       -4.3252299784
 O        -8.8017781879       10.1309919230       -4.6527211075
 C        -6.6156500149        9.1609024181       -5.2698576008
 C        -6.3734937995        7.7384812954       -4.6087600579
 O        -5.7100687849        7.5921019121       -3.5941275242
 C        -6.9642152851        6.4668275399       -5.2570223813
 C        -6.5168335517        5.0935473447       -4.6377776987
 C        -6.9639707275        5.0774946459       -3.1813704517
 O        -8.0141075682        5.5721680832       -2.7996138866
 C        -6.1906079653        4.3258082361       -2.0735466170
 C        -7.2158024312        3.5916379285       -1.1065312358
 O        -7.5075272740        4.1860815715       -0.0402558817
 C        -7.7859160019        2.3076775789       -1.4595659393
 C        -8.9289397360        2.0070939925       -0.5158357287
 C       -10.1213562642        2.9438773032       -0.8452518216
 O       -10.0128897620        4.0541401488       -1.1788151924
 C       -11.6318034969        2.1462851858       -0.7749714264
 C       -11.6979233880        1.0640530538        0.3942863552
 O       -11.0008119880        0.0515937408        0.2805752841
 C       -12.5997895847        1.2201985938        1.6045823944
 C       -14.1344055726        1.1893789744        1.3736219777
 C       -14.3923184859       -0.1757440486        0.7705433171
 O       -13.9056954240       -0.4721997349       -0.2521702235
 C       -15.3544135080       -1.1388409740        1.5381733865
 C       -14.5764763927       -1.5353087280        2.8543189002
 O       -14.8970353699       -1.1900786154        3.9537434927
 C       -13.3970038991       -2.5317075722        2.7564144977
 C       -12.7948284594       -2.9802859980        4.0613322103
 C       -11.5269237446       -2.2484913392        4.1587753242
 O       -11.4405644593       -1.0928753764        3.6825472015
 C       -10.3776136463       -2.6810702431        5.1984870920
 C       -10.9439520567       -2.7647225596        6.6758581179
 O       -11.3915739871       -3.7498801931        7.1365688109
 C       -10.8412119109       -1.5152540130        7.5400551079
 C        -9.7885726618       -4.0872357562        4.8907220395
 C        -9.3127284422       -1.5671330845        5.0774076533
 C       -16.6684482717       -0.4385303067        1.9607472683
 C       -15.7475195951       -2.3709696463        0.7285567364
 C       -12.5823728694        3.3646944325       -0.5871839943
 C       -11.7249006581        1.4815386519       -2.2021401575
 C        -5.1730129835        3.2868665639       -2.6810380680
 C        -5.3963629787        5.3309473369       -1.2472863279
 C        -7.0801230238        9.0880358164       -6.7853374236
 C        -5.2517731992        9.8756879252       -5.2709485523
 C       -11.2370292842        8.6730340062       -0.9720290589
 C       -10.5237642316       10.6851237997        0.4280977198
 H       -10.0619546756        9.5704170326        2.8209252945
 H        -8.3815181043        9.0401237315        2.6448554786
 H        -9.7932298677        7.9431481443        3.2416683338
 H        -8.2906442819       11.5298161736       -1.3912683905
 H        -9.4050480770       10.7619317355       -2.4936468324
 H        -6.7608432146        9.2383436857       -2.3477395656
 H        -6.5615825390       10.9305366902       -2.9393052749
 H        -6.6250546728        6.4441489761       -6.3298001786
 H        -8.0913208763        6.4971688980       -5.4355727077
 H        -5.3996317285        4.9948514483       -4.8015472832
 H        -7.0685724923        4.3386337571       -5.2613492621
 H        -7.1813680133        1.5349654663       -1.3580440268
 H        -8.1247717218        2.3598970123       -2.5055405955
 H        -8.6246944946        2.2167771553        0.4615704731
 H        -9.1888618519        0.9742558927       -0.4497411107
 H       -12.3294020028        2.1241543107        2.1990041342
 H       -12.1015333564        0.5410120252        2.4387989935
 H       -14.3543556519        2.0222436565        0.6468047638
 H       -14.7972200189        1.4439274512        2.1995300024
 H       -12.6603954777       -1.8508819576        2.3056637964
 H       -13.8931101714       -3.2506655698        2.2298997925
 H       -12.6661282055       -4.0595445243        4.0704347041
 H       -13.5230394816       -2.7854746135        4.9299367404
 H        -9.9071847189       -1.3186793916        8.0081141259
 H       -11.5466970031       -1.6568595502        8.4230904090
 H       -10.9465644711       -0.5486819256        6.9971119045
 H       -10.5455570602       -4.9074198015        4.5074709070
 H        -9.2292502861       -4.4805364026        5.7198164358
 H        -8.9828216236       -3.9846315590        4.1396518827
 H        -9.6022903267       -0.6235146900        4.7405569945
 H        -8.4388605185       -1.9171626376        4.4962225623
 H        -8.8470312470       -1.2429868367        6.0485818616
 H       -16.6264467867        0.5033230913        2.5665904042
 H       -17.2054167695       -1.1428116052        2.5502489783
 H       -17.1883964620       -0.2134530880        1.0664745657
 H       -15.4357012337       -2.1558965830       -0.2771197907
 H       -16.7032161846       -2.5410284462        0.7271751071
 H       -15.3464614916       -3.2538425545        1.1607137461
 H       -13.6756697516        3.0877663807       -0.5825139594
 H       -12.2483847907        3.9809067538       -1.4341511529
 H       -12.2947570383        3.9292482959        0.2864555859
 H       -11.6625935733        2.2961973240       -2.8838363571
 H       -12.7116624971        1.0211414693       -2.4133609282
 H       -10.7258724957        0.9536361876       -2.2517652346
 H        -4.4432722561        3.1749325302       -1.7274422326
 H        -4.3689049500        3.7865624964       -3.3190275022
 H        -5.6438629040        2.4732826901       -3.0680862367
 H        -4.8386554394        5.8883163600       -2.0135942711
 H        -4.6140702521        4.8346431375       -0.6378012167
 H        -5.9757549523        5.9628558183       -0.6810322057
 H        -7.4779619310        9.9948406677       -7.1310912514
 H        -7.9714758258        8.4251007673       -6.9616320853
 H        -6.2882988309        8.7938651173       -7.4867030828
 H        -5.2847590216       10.8419129451       -5.7724029385
 H        -4.5655455949        9.3520421501       -6.0465657523
 H        -4.7855787480        9.8308595211       -4.3134223809
 H       -12.2739204989        8.6271782525       -0.4564594218
 H       -11.2339081497        7.6023748335       -1.2534125187
 H       -11.4757505766        9.3078799330       -1.7740307840
 H       -10.9729759731       10.6036729419        1.3660361869
 H       -11.1762236435       11.2056358857       -0.3838600976
 H        -9.7154819487       11.3378690455        0.5624233064
 Na       -8.5952896798        6.0905450770       -0.6596501892
