117

 C        -9.3728776888        8.6491038234        2.4253982318
 C        -9.7933804756        8.2325604773        1.1021837499
 O        -9.9667293626        7.0415854556        0.8589299994
 C       -10.0004375888        9.2603379499       -0.1439453136
 C        -8.6685970027        9.2619306665       -1.0890302131
 O        -7.7648105383        8.4164259358       -0.8443343934
 C        -8.2485372084       10.4669036728       -1.8609537548
 C        -7.0901667130       10.2178862862       -2.8159177868
 C        -7.5817496368        9.8415027012       -4.3396600145
 O        -8.6172734907       10.1902828015       -4.7683300044
 C        -6.5471631936        8.9536276877       -5.3093771843
 C        -6.3108340689        7.5981890158       -4.7376375468
 O        -5.6834575709        7.5864786473       -3.6118046549
 C        -6.9152983845        6.3533545057       -5.3767102478
 C        -6.7232253735        4.9825135899       -4.5527112178
 C        -7.2338117282        5.1339527050       -3.1831571589
 O        -8.2501813827        5.7324922287       -2.9231779762
 C        -6.2107652770        4.3949502813       -2.0381609530
 C        -7.2647979351        3.6555860443       -1.0512274362
 O        -7.5489670895        4.2612008737       -0.0178934490
 C        -7.6845288393        2.2862417116       -1.2763735738
 C        -8.9358613944        2.0530410335       -0.3382667488
 C       -10.1646175972        2.9337682824       -0.7359446009
 O       -10.0278742008        4.0696157754       -1.0958038813
 C       -11.5571126827        2.3466460866       -0.8694019694
 C       -11.8162166230        1.1065400371        0.3008881444
 O       -11.0192884772        0.2021931605        0.3356140576
 C       -12.7676297532        1.3797311462        1.4300151883
 C       -14.2497761588        1.2172729640        1.2805986696
 C       -14.5235269229       -0.1970876421        0.7685241791
 O       -13.8605309946       -0.5839663106       -0.2171545494
 C       -15.4421905987       -1.3282873645        1.4748363220
 C       -14.7535943493       -1.6842703179        2.9489917977
 O       -15.1190497075       -1.1798576818        3.9649559678
 C       -13.4745512776       -2.6721567913        2.6798070580
 C       -12.6749149931       -2.9924498633        3.9635742037
 C       -11.4703004946       -2.1216706262        4.3182521102
 O       -11.3253919250       -1.0914732328        3.6575806922
 C       -10.2802821971       -2.5576364804        5.3067804815
 C       -10.9146156050       -2.5659855616        6.8271502533
 O       -11.4208248049       -3.5477851519        7.3108650981
 C       -10.7670301610       -1.2724487544        7.6363375567
 C        -9.7447689649       -3.9265145274        4.9044201818
 C        -9.1737321256       -1.4159331036        5.1509126506
 C       -16.7668597817       -0.5450822763        2.0815768970
 C       -15.7277611866       -2.3920504175        0.4437865155
 C       -12.7971748939        3.3160731083       -0.8064196615
 C       -11.6688174437        1.5306982317       -2.1695952027
 C        -5.3566162177        3.2642354831       -2.6985372254
 C        -5.4095565343        5.3275501365       -1.0892644780
 C        -6.9912364990        8.8483676775       -6.7581881340
 C        -5.1959485644        9.7167175742       -5.2446757710
 C       -11.2211332625        8.7356807359       -0.8821908449
 C       -10.2504963968       10.6240223739        0.5073532906
 H        -9.9967938608        9.4573851984        2.9893108029
 H        -8.4671979911        9.0999270758        2.1416507606
 H        -9.1740794786        7.8149653851        3.1350130053
 H        -7.9211069935       11.1828404800       -1.0874240653
 H        -9.0629386651       11.0092283287       -2.3783970711
 H        -6.5257490437        9.4341013873       -2.4133451719
 H        -6.4749216653       11.1264360539       -2.9688065361
 H        -6.5947242894        6.2162272908       -6.4674330448
 H        -8.0020610693        6.7044333694       -5.5158808854
 H        -5.6527332126        4.8891773790       -4.4841681259
 H        -7.1457977260        4.0509418772       -5.1058700514
 H        -6.8696894558        1.5606737364       -0.9087820992
 H        -7.8751821487        1.9047711816       -2.2799096395
 H        -8.7312181516        2.3751591550        0.7340795584
 H        -9.2020996144        1.0414609119       -0.1536523824
 H       -12.4597042892        2.3246355277        1.9460599441
 H       -12.3720118930        0.7737575416        2.2260403237
 H       -14.6380719017        1.9898956585        0.6761071098
 H       -14.7695728962        1.3203682738        2.1724164071
 H       -12.9066988218       -2.0607897051        1.9866030280
 H       -14.1384855435       -3.4382052921        2.3580767992
 H       -12.3500980539       -4.0637180728        3.9720257467
 H       -13.4959937947       -2.9830305536        4.7463149531
 H        -9.8207410260       -1.2588019849        8.1352783508
 H       -11.4588187748       -1.2403165060        8.4938589461
 H       -10.6116800022       -0.2860979364        7.0755436875
 H       -10.5567259592       -4.5960626796        4.6419612786
 H        -9.0782316458       -4.3362691068        5.6398129727
 H        -9.0186057951       -3.8888386492        4.0196785396
 H        -9.4533241967       -0.3857477323        5.0972633307
 H        -8.5208773266       -1.7134421222        4.3626019157
 H        -8.5147065761       -1.3300341407        5.9689398133
 H       -16.6325806325        0.3203680906        2.7319369140
 H       -17.4196768308       -1.2446565644        2.6083127612
 H       -17.3315997895       -0.2140790784        1.1951266830
 H       -15.2762538129       -2.0279961375       -0.5145645305
 H       -16.8292891842       -2.5977243304        0.2664028104
 H       -15.3893707808       -3.3058728195        0.8051288904
 H       -13.5242544848        2.5810785359       -0.9477871659
 H       -12.7031473452        4.1447682332       -1.5090481098
 H       -12.9227079698        3.8224754279        0.2474923093
 H       -11.4530943325        2.1957438359       -3.0077544653
 H       -12.6813422167        1.3329520399       -2.2693810364
 H       -10.9337965375        0.7087414912       -2.0902028558
 H        -4.7886317191        2.8156239017       -1.8957295475
 H        -4.5590547804        3.6965576995       -3.2428424467
 H        -6.0385662522        2.6017107904       -3.2673253791
 H        -4.8423402862        6.0190483544       -1.5721465181
 H        -4.7438448962        4.8067957027       -0.4267487427
 H        -6.2236929077        5.7872719876       -0.5368496850
 H        -7.5261922453        9.7193112468       -7.0817043805
 H        -7.8231808459        8.1206137347       -6.8490231475
 H        -6.2110445866        8.6924035927       -7.5074826767
 H        -5.3868499805       10.6776044754       -5.3969911137
 H        -4.5651888892        9.4804399990       -5.9844622533
 H        -4.7988921114        9.4735777258       -4.2971470117
 H       -12.1145910669        8.5323801371       -0.3797790884
 H       -11.1615536402        7.7752049386       -1.4323629138
 H       -11.5655037533        9.6054269886       -1.5804002537
 H       -11.1727007156       10.5782235586        1.0454503041
 H       -10.2537299518       11.2805283946       -0.3056943921
 H        -9.4977486766       10.9897556303        1.1704146647
 Na       -8.7016024424        5.9204356267       -0.6910011043
