117

 C        -9.1434253898        8.5793462741        2.3603249274
 C        -9.6290224130        8.0845585596        0.9870585766
 O       -10.0316690237        6.9713174595        0.8325984852
 C        -9.8296735382        9.2534974008       -0.1827302831
 C        -8.4968430172        9.2708818994       -1.0106964064
 O        -7.7949809820        8.1634745280       -0.9306799361
 C        -8.0800622809       10.3870210076       -1.9585971716
 C        -6.9876910021       10.1298403186       -3.0491643344
 C        -7.4443892290        9.7312598082       -4.3695678355
 O        -8.4469990696       10.2154105581       -4.8587193654
 C        -6.4966181226        8.8961023882       -5.2806103071
 C        -6.3290393465        7.4654389796       -4.6367237096
 O        -5.6829179182        7.2658651591       -3.6250188559
 C        -6.9253715211        6.2806165565       -5.4423867329
 C        -6.7374794750        5.0254229926       -4.5508326565
 C        -7.1940523608        5.1989588663       -3.1039467956
 O        -8.2638283123        5.7886981771       -2.9227957303
 C        -6.4258247327        4.4460345849       -1.9645952734
 C        -7.2110928261        3.6866151572       -0.8148603737
 O        -7.5541498672        4.3443474941        0.1137861029
 C        -7.7332346040        2.1977009691       -0.9936242928
 C        -9.0543872446        2.0232457805       -0.1818136956
 C       -10.2464341324        2.8855777922       -0.6950333509
 O       -10.1534825275        4.1339780019       -0.9986596736
 C       -11.7744996180        2.1818604047       -0.8881778114
 C       -11.8384096300        1.2871623660        0.3496035105
 O       -11.0923261956        0.3473253018        0.2637900269
 C       -12.9043059164        1.6339711085        1.4937719939
 C       -14.3728743148        1.1271965052        1.2835012215
 C       -14.5858286569       -0.2820970547        0.8095396613
 O       -13.8934046334       -0.6787369052       -0.1505989090
 C       -15.5061543458       -1.3207755724        1.4035932238
 C       -14.7921654516       -1.7892296024        2.7694370010
 O       -15.1475795852       -1.3704045511        3.8471087287
 C       -13.5519003675       -2.7896556339        2.7681688615
 C       -12.6209324954       -3.0392810850        4.0542215185
 C       -11.3827872004       -1.9523170338        4.2721527736
 O       -11.2702135065       -0.9816977141        3.6132607049
 C       -10.3020257882       -2.3732344034        5.3994305398
 C       -10.7942630101       -2.2940516605        6.8910517059
 O       -11.4073183223       -3.3188003161        7.2985106922
 C       -10.6811555197       -1.0582568480        7.7125430864
 C        -9.7871669135       -3.6974613304        5.0205346115
 C        -9.1109754021       -1.4476428699        5.3294316197
 C       -16.9083392805       -0.6519591674        1.9652709787
 C       -15.7947199547       -2.4034585412        0.4482205279
 C       -12.8206422119        3.2876605486       -1.0083390012
 C       -11.5840168850        1.4484681957       -2.2572823803
 C        -5.5607034088        3.3451918890       -2.6747449427
 C        -5.4199772182        5.4253614088       -1.2560718043
 C        -7.0609971400        8.8186750477       -6.7149696449
 C        -5.0315730748        9.7130067808       -5.2330860682
 C       -11.1183151967        8.8726929023       -0.9279158764
 C        -9.9802446895       10.6652892590        0.4852487831
 H       -10.0954094163        9.0468817386        2.8155034434
 H        -8.4180336603        9.3647261106        2.3752643101
 H        -8.8555071475        7.8007051820        3.0075409226
 H        -7.7086513956       11.2746845515       -1.4038460470
 H        -8.9457979076       10.7450253455       -2.4256410680
 H        -6.3005010748        9.4246451208       -2.7050639424
 H        -6.4850910739       11.1448820314       -3.2583759891
 H        -6.5112680748        6.1694247143       -6.4784716121
 H        -7.9589670049        6.5225321805       -5.6094479236
 H        -5.7402721843        4.5721615966       -4.7663559058
 H        -7.4963105254        4.3009760592       -4.8686228739
 H        -6.9073622373        1.3417868607       -0.7210608606
 H        -8.0141737797        1.8503744460       -2.0234799165
 H        -9.1710335383        2.0529474932        0.9684609661
 H        -9.4759668226        0.9776366154       -0.3086623857
 H       -12.8341073599        2.6439537771        1.8230367746
 H       -12.5564181503        1.1720082183        2.3181079509
 H       -14.8808551586        1.7187077496        0.5993806183
 H       -14.9325004195        1.2300195735        2.1997871395
 H       -12.8887287522       -2.2399418782        2.1348277585
 H       -14.1751970009       -3.6930714311        2.4078455846
 H       -12.1462508246       -4.0257053189        3.7800849848
 H       -13.1442194307       -3.2862595303        4.9551482441
 H        -9.7350741142       -0.9094005430        8.3415059157
 H       -11.4457707947       -1.0026092029        8.4221517777
 H       -10.5705327992       -0.2082003020        7.1065707013
 H       -10.5565334829       -4.3552219371        5.1173802358
 H        -8.8320432480       -3.9252116495        5.5877398620
 H        -9.4223442836       -3.7707090741        4.0319664849
 H        -9.1509222976       -0.4504000564        5.7854360604
 H        -8.7886520582       -1.4270624977        4.3403879360
 H        -8.2741064390       -1.7963111952        5.8331807906
 H       -16.8502859695        0.0852290491        2.7298204108
 H       -17.5809140848       -1.4860722323        2.3420232754
 H       -17.4928365176       -0.2353105384        1.0768875424
 H       -15.2863076293       -2.1155448913       -0.4857772537
 H       -16.9559537986       -2.5615450437        0.2078020238
 H       -15.5270226632       -3.4022319405        0.9238011490
 H       -13.6730502344        2.7730965576       -1.3787674049
 H       -12.3319868627        4.0458974015       -1.6230462165
 H       -13.0086707151        3.8101388523       -0.0755145583
 H       -11.2150860666        2.2790430119       -2.8735354442
 H       -12.5871303476        1.2667510340       -2.6983244985
 H       -10.9962331436        0.5906399684       -2.1915714937
 H        -5.3718936366        2.5698677661       -2.0664217127
 H        -4.7464525836        3.9021539252       -2.9684668806
 H        -6.1420767586        3.0155892695       -3.6034655695
 H        -4.6798104793        5.8782975783       -1.9318622943
 H        -4.8522317870        4.8513585287       -0.5997741300
 H        -6.0418376838        6.1357206114       -0.6732573000
 H        -7.4082283855        9.8070422244       -7.1846044756
 H        -7.9694697341        8.2875684974       -6.6806235760
 H        -6.3288933074        8.4331722191       -7.4488225095
 H        -5.3006474510       10.7965337760       -5.3142026877
 H        -4.4024138250        9.4191245665       -6.0453579328
 H        -4.6788899030        9.4220270482       -4.3146350666
 H       -11.9987333285        8.6307106233       -0.3804356245
 H       -11.0212966921        7.9886763469       -1.5240589630
 H       -11.5101730250        9.7066660438       -1.5557179506
 H       -11.0512655459       10.9068998677        0.6231871234
 H        -9.5392954354       11.2599693968       -0.2173654951
 H        -9.4519410971       10.8960437053        1.4229353381
 Na       -8.8571573491        5.9431052282       -0.7145211478
