117

 C        -8.7737426259        8.3785176899        2.3705857055
 C        -9.4948307108        8.2371431770        1.0513126149
 O       -10.1422450012        7.2054039775        0.7950117995
 C        -9.4986448915        9.2697007110       -0.1079734086
 C        -8.2225149251        8.9995397249       -1.1103606719
 O        -7.7453975276        7.9485322999       -1.2631474027
 C        -7.9757059100       10.1688025985       -1.9914290812
 C        -6.8165627514        9.8055152855       -2.9449522912
 C        -7.2421982250        9.6341279979       -4.4159356814
 O        -8.2774066380       10.1618996765       -4.7016806913
 C        -6.3296040367        8.8139611747       -5.3616058581
 C        -6.3437243412        7.4253130611       -4.7906784375
 O        -5.6490375217        7.2384988620       -3.7639823847
 C        -7.1394904102        6.1427292299       -5.3292360562
 C        -6.9121748231        4.8622642989       -4.5535120563
 C        -7.2562256779        5.0569891267       -3.0759922860
 O        -8.1715968252        5.8203512245       -2.8564343132
 C        -6.4605482069        4.2968186002       -1.9767541019
 C        -7.3380888951        3.8163211035       -0.6335633488
 O        -7.4481558072        4.6759547712        0.2559265580
 C        -7.9458055952        2.4050510074       -0.7226663328
 C        -9.2863599145        2.1093117874       -0.1230778610
 C       -10.4866577341        2.9995216781       -0.6816326402
 O       -10.4112450389        4.1526569637       -0.7956117929
 C       -11.8344908102        2.1611664580       -0.9978614706
 C       -12.1017679452        1.2986668259        0.3707654066
 O       -11.5099330439        0.2257599714        0.4506720367
 C       -13.2301447263        1.6978717216        1.4083282731
 C       -14.6058519189        0.9867519258        1.3147545872
 C       -14.5228223670       -0.4197572419        0.7792202921
 O       -13.8073795380       -0.7000536869       -0.1620239221
 C       -15.4354093768       -1.4544470147        1.5259062190
 C       -14.7273965352       -1.9866951708        2.8488787528
 O       -15.1357407876       -1.6801155260        3.9324088846
 C       -13.3929444368       -2.6885855673        2.7057254992
 C       -12.6459058021       -2.7220017083        4.1366618066
 C       -11.3344208046       -1.7573948293        4.1770866967
 O       -11.2879223501       -0.6730489923        3.5754428903
 C       -10.3239698816       -2.0888638593        5.3854506978
 C       -10.8981916590       -2.0221226678        6.8878348655
 O       -11.5378401312       -2.9152992369        7.3242060262
 C       -10.6817153641       -0.7356944441        7.7165392971
 C        -9.9171910232       -3.5953227068        5.3118607580
 C        -9.1376913979       -1.1831203780        5.1423283477
 C       -16.7553578273       -0.7493629332        1.8012762334
 C       -15.7451269047       -2.7843800813        0.5884210585
 C       -12.8187218020        3.2516195572       -1.4182650558
 C       -11.5871009932        1.1975146710       -2.2411481120
 C        -5.6549837857        3.0840205067       -2.3785056739
 C        -5.5259358737        5.4189079150       -1.4590768556
 C        -6.8872966193        8.8584803287       -6.8203893204
 C        -4.8731252889        9.3754576911       -5.3519845191
 C       -10.6904824443        9.0936537863       -1.1806611498
 C        -9.5933710828       10.7242481359        0.4409695738
 H        -9.5035005591        8.6503083847        3.2012616468
 H        -8.0711672082        9.1826629135        2.3297829935
 H        -8.2876876819        7.4237171794        2.6450574352
 H        -7.6916830591       11.0394982735       -1.4299040752
 H        -8.8675401757       10.5733708582       -2.5689648347
 H        -6.2574794057        8.9061258118       -2.4934727570
 H        -6.1974478944       10.6920386382       -2.9199644171
 H        -6.8839082284        6.0885791008       -6.3995745422
 H        -8.2144104520        6.4109684450       -5.2835558007
 H        -5.8938681568        4.4962693640       -4.6630834110
 H        -7.4678421194        3.9721344120       -4.9692936057
 H        -7.2980618090        1.6500156274       -0.5561622918
 H        -8.0948348234        2.2867736844       -1.7909259236
 H        -9.3103271899        2.2279732545        0.9190712807
 H        -9.5760294969        1.0928580441       -0.1419379878
 H       -13.4259074824        2.8310652388        1.2090520407
 H       -12.8208566242        1.6070550011        2.5131341080
 H       -15.4449192263        1.5973689787        0.7577036127
 H       -14.9329490930        0.9358749904        2.3889635469
 H       -12.8213138368       -1.9988010490        2.0640019872
 H       -13.5792522734       -3.6619781757        2.3600689229
 H       -12.6090103065       -3.7292836021        4.4141990774
 H       -13.2192778898       -2.2581352970        4.9788687722
 H        -9.7577293937       -0.4730032424        8.0479618598
 H       -11.2716942956       -0.8207776126        8.6404240310
 H       -10.9455382766        0.2229273050        7.1817807241
 H       -10.6441925053       -4.1368259736        5.9436227202
 H        -8.9063858805       -3.7343764688        5.4388212332
 H       -10.1655441016       -4.0462072490        4.2974466700
 H        -9.1974892653       -0.3186445499        5.7797898074
 H        -9.0285015260       -0.8068048934        4.0935144757
 H        -8.1086999061       -1.5321189376        5.4202692178
 H       -16.5001278805       -0.0238344195        2.6217954285
 H       -17.5382951358       -1.3773901974        2.1752896342
 H       -17.1917275234       -0.2832323790        0.9435470565
 H       -14.9354922005       -2.8700820159       -0.1311564148
 H       -16.6445702246       -2.6919645232        0.0370468822
 H       -15.8571895501       -3.5866848743        1.2080724359
 H       -13.7443673264        2.7867298903       -1.6393849228
 H       -12.3312197558        3.7616549249       -2.1993717188
 H       -12.8100855532        4.0133191908       -0.5948125294
 H       -11.2191016085        1.8055301597       -3.0801713474
 H       -12.5452751338        0.7590656110       -2.4839711093
 H       -11.0194941784        0.2703244479       -1.8316422018
 H        -5.3323524930        2.7098786937       -1.3613971574
 H        -4.9363123329        3.3072604462       -3.2301699798
 H        -6.3757020305        2.2889506997       -2.6407304993
 H        -4.6790098062        5.4402944393       -2.1084189982
 H        -5.0889723246        5.2417643059       -0.4094597157
 H        -6.0996395707        6.3501044172       -1.5050763574
 H        -6.5442748384        9.6902836083       -7.3491146843
 H        -8.0278806296        8.9175942381       -6.8181588621
 H        -6.4783681039        8.0584969068       -7.4218793465
 H        -4.9803220105       10.4260723318       -5.7410593769
 H        -4.3295604620        8.7533655649       -6.0861399198
 H        -4.3740826352        9.2493102164       -4.2600985984
 H       -11.7194715783        9.2116827043       -0.9089489391
 H       -10.6224779002        8.1023093295       -1.6352714581
 H       -10.7118299923        9.8122454676       -2.0424775582
 H       -10.5687679561       10.8820432943        0.9711678017
 H        -9.3856624271       11.5336857155       -0.3028212518
 H        -8.7412693985       10.7588468847        1.1660363829
 Na       -9.1233580213        6.0603854441       -0.7614129345
