117

 C        -8.1434019324        8.4571934658        2.0303252284
 C        -9.1843111434        8.4686950103        0.9477664855
 O       -10.1162421847        7.5986419448        0.9635050496
 C        -9.1726425711        9.5885155290       -0.2258800449
 C        -7.9451076509        9.0495173913       -1.1932939661
 O        -7.9316729422        7.8246901258       -1.2712116539
 C        -7.0197002646       10.0384778946       -1.7709569109
 C        -6.1416047992        9.6526810980       -3.0194870619
 C        -6.8075639334        9.4085546773       -4.3808324788
 O        -7.9400754323        9.7802351671       -4.5209844342
 C        -6.1329824896        8.4567052129       -5.4460887180
 C        -6.0332728881        7.0455736766       -4.8575192129
 O        -5.0831844340        6.7714016584       -4.0041663630
 C        -7.1195300901        5.9382067796       -5.2176508744
 C        -6.9448365206        4.5764114461       -4.4630923068
 C        -7.4657531542        4.6438389854       -3.0772129892
 O        -8.6166639925        4.9749198736       -2.7583179296
 C        -6.4273654722        4.1776265342       -2.0529135389
 C        -7.4294875815        3.8170811077       -0.8307986480
 O        -7.7003304535        4.6836625871        0.0273941658
 C        -8.2927546779        2.5828700273       -0.8013186099
 C        -9.6063297596        2.7886262687        0.0216278982
 C       -10.9933278062        3.2521611887       -0.5998062068
 O       -11.2594847653        4.3477955914       -0.8960315494
 C       -11.9195063060        2.0783005182       -0.9503655051
 C       -12.4310034518        1.2196983171        0.3934306749
 O       -11.6563905515        0.4697459242        0.9289266511
 C       -13.6595191869        1.7096643229        1.2179152052
 C       -15.0309234341        0.8041845420        1.3174202006
 C       -14.8991700596       -0.6648823055        0.8233014722
 O       -14.2628258652       -0.6777480130       -0.2319976460
 C       -15.4918593863       -1.9084149259        1.4424616815
 C       -14.8167635161       -2.0214574352        2.9852846221
 O       -15.5014561008       -1.9951314030        3.9780400346
 C       -13.3021498974       -2.0615586310        2.8902101256
 C       -12.5359493718       -2.2272878078        4.2411996245
 C       -11.2692185322       -1.2660067582        4.3823522115
 O       -11.2882602422       -0.1001002423        4.0508680662
 C       -10.1371347333       -1.7239122991        5.3904745819
 C       -10.9893749802       -1.2915505812        6.7801094651
 O       -11.8957313236       -2.0719449279        7.0637511821
 C       -10.8206086350        0.0805241461        7.3473565084
 C        -9.7328463439       -3.1638183327        5.4754287120
 C        -8.9042678760       -0.9061829736        5.2710679311
 C       -17.0191961759       -1.5715719830        1.5690471484
 C       -15.2811712800       -3.1898603708        0.7355533836
 C       -13.1981007583        2.4455639462       -1.9219492043
 C       -11.0992835815        1.0222801121       -1.8150192405
 C        -5.6495984020        2.8655611372       -2.5189795000
 C        -5.4529127487        5.1577317762       -1.3390492565
 C        -6.9475829431        8.5459609032       -6.8010763620
 C        -4.6332466204        8.9242071987       -5.6703334255
 C       -10.4981958817        9.5363795166       -1.0026398101
 C        -8.9399022514       10.9903207764        0.3141003613
 H        -8.3952082108        9.2473348067        2.8747382803
 H        -7.3376706938        8.8192944835        1.5180288190
 H        -7.8548326171        7.5765798498        2.5311959390
 H        -6.3830256566       10.3891284771       -1.0174788620
 H        -7.6000322028       10.9506339601       -1.9748065133
 H        -5.6319538189        8.7786385057       -2.6197142975
 H        -5.4004701788       10.5141883177       -3.0606646779
 H        -7.2067864121        5.8056579081       -6.2649514531
 H        -7.9158881743        6.5397511913       -4.8006995874
 H        -5.9512028828        4.2636061046       -4.4588115013
 H        -7.3144190832        3.8308527270       -5.2059934112
 H        -7.8806990578        1.7071035674       -0.3728456175
 H        -8.4670174032        2.2911725786       -1.8153833319
 H        -9.3780111376        3.4642787083        0.8958885792
 H        -9.8590067730        1.9201764093        0.6015048584
 H       -14.0353518658        2.6722997527        0.6585251110
 H       -13.2236544185        1.6314916827        2.2103481461
 H       -15.7783639757        1.2678531515        0.5763198208
 H       -15.4083828682        1.0273850842        2.3134066013
 H       -12.9945217895       -1.0710394747        2.4149011731
 H       -13.2314507351       -2.8977965667        2.2433313183
 H       -12.1835242962       -3.1824392053        4.5096943557
 H       -13.3603146654       -2.0877523079        4.9389532134
 H        -9.8672836457        0.3456618090        7.7238534525
 H       -11.5109586115        0.2984930483        8.1251451998
 H       -11.0768520198        0.8332236979        6.5911684112
 H       -10.4851376792       -3.8670450041        5.6774815172
 H        -9.0537672221       -3.2667322351        6.3049922045
 H        -9.3166420044       -3.4574552514        4.4811522935
 H        -8.8730867099       -0.0318371765        4.6481908371
 H        -8.1540663568       -1.5002194067        4.7467970091
 H        -8.4838822086       -0.6932450559        6.2383959595
 H       -17.3534566616       -0.6052635877        2.0144484362
 H       -17.5022826072       -2.3309205113        2.2089498060
 H       -17.4946545419       -1.7968269597        0.5871105907
 H       -14.4953853179       -3.6980136960        1.1547039491
 H       -15.2065140422       -2.9227344963       -0.3799660950
 H       -16.0913276841       -3.8244898077        0.8977361072
 H       -13.7789612760        1.6047377517       -2.0519593609
 H       -12.7793998906        2.6528132518       -2.8489087154
 H       -13.7340754258        3.3121969074       -1.4210787109
 H       -10.6615150674        1.4345567746       -2.7847258341
 H       -11.6554824884        0.1263686179       -1.8940393387
 H       -10.2915426010        0.5741600710       -1.1744846976
 H        -5.4071758959        2.3839214047       -1.6121251885
 H        -4.7324877117        3.2285668300       -3.0746270275
 H        -6.2647885629        2.0507052578       -3.2182605718
 H        -4.9476989961        5.8646748839       -1.9388511834
 H        -4.8000993423        4.5463227687       -0.6514654373
 H        -6.1442978767        5.7397789149       -0.6287661102
 H        -7.0665187225        9.6296891874       -6.9025503987
 H        -7.9546817939        8.0437513900       -6.7132391617
 H        -6.4005574475        8.1141124858       -7.6746098882
 H        -4.9123468473       10.0825643080       -5.7331270076
 H        -4.3821327042        8.3211929139       -6.6149095182
 H        -3.9967417956        8.6943357651       -4.7838080148
 H       -11.3065261970        9.7657844268       -0.4358008819
 H       -10.6959127615        8.6925382882       -1.6073587870
 H       -10.5555186683       10.2903148966       -1.8762429268
 H        -9.4716623555       11.0811590954        1.3190513495
 H        -9.5471709089       11.6300232617       -0.2086606521
 H        -7.8368754014       11.2674042643        0.3407594976
 Na       -9.5525877447        6.0579914719       -0.7297307433
