117

 C        -7.8737239967        8.7505983039        1.9871508767
 C        -8.8761072164        8.6171207098        0.8958994233
 O        -9.6658415777        7.6532648154        0.7972914098
 C        -8.8363793125        9.6909587448       -0.2881428530
 C        -7.9104079095        9.0761028820       -1.4464007293
 O        -8.0680849206        7.9275149742       -1.8375715757
 C        -6.5845370784        9.8236799556       -1.7227655053
 C        -5.8535157822        9.0372354913       -2.8229392040
 C        -6.6558405735        8.9930566182       -4.1456241059
 O        -7.7593027780        9.4489143321       -4.2456848641
 C        -6.0127279156        8.2410515976       -5.3620070010
 C        -5.8277650989        6.7951711485       -4.8881615339
 O        -4.8668063293        6.3387713937       -4.2832453119
 C        -7.0074414815        5.7858534070       -5.2683133177
 C        -6.8573393828        4.3812789263       -4.4359621324
 C        -7.5464774052        4.4741120280       -3.0821337231
 O        -8.5446624730        5.1635196481       -2.9267031375
 C        -6.8616583226        3.9073897159       -1.7932069235
 C        -7.8436200118        3.9106214785       -0.6859397826
 O        -7.7372310799        4.7266582504        0.2509433897
 C        -8.8464860183        2.7400700368       -0.6549172319
 C        -9.9204766876        2.9144966219        0.2786710077
 C       -11.2659646335        2.9988088706       -0.5284399779
 O       -11.5521429466        4.0746199990       -1.0250983877
 C       -12.2137212502        1.6851311767       -0.8597743806
 C       -12.6187029510        1.2053773958        0.6032575422
 O       -11.8668578687        0.5131510295        1.2791139922
 C       -13.9659935223        1.9053969790        1.0524822001
 C       -15.0932638360        0.6893379888        1.2350279803
 C       -14.7463137899       -0.7082647916        0.5000002706
 O       -14.2355264997       -0.8407840457       -0.6102735193
 C       -15.3412213473       -1.9299305173        1.3641211457
 C       -14.6069280839       -1.9325064720        2.7769853455
 O       -15.2881501152       -2.1206031029        3.7851188903
 C       -13.2150339678       -1.4400150122        2.8298818795
 C       -12.5743117587       -1.8879861927        4.0876076062
 C       -11.3448108162       -0.9537189122        4.4589469099
 O       -11.1805722415        0.0892172178        3.8387059564
 C       -10.3195558633       -1.3030323748        5.6519061734
 C       -11.0560423442       -0.7776226888        6.8979858242
 O       -11.7696055485       -1.5193863483        7.5357250154
 C       -10.8384624462        0.6222256239        7.4289071292
 C       -10.0246721952       -2.7912054184        5.5875977704
 C        -9.0172495463       -0.5845997915        5.3417143520
 C       -16.8363985607       -1.8278370761        1.6388396562
 C       -15.1323104233       -3.2785794211        0.5963650133
 C       -13.2889869867        2.1726766369       -1.8446115534
 C       -11.2782065684        0.5872218100       -1.5298277503
 C        -6.1854523542        2.5516280236       -2.0950350991
 C        -5.6282052412        4.9137951707       -1.6998017447
 C        -7.0461185830        8.4296672007       -6.5737953559
 C        -4.6735836007        9.0687889053       -5.6676300204
 C       -10.2421774936        9.8976712778       -0.9845478626
 C        -8.3747312352       11.0785434158        0.1422611360
 H        -8.1365630398        9.7248943805        2.6176138316
 H        -6.9015294530        8.7077194657        1.6695835272
 H        -7.9577131654        8.0133639680        2.7754692904
 H        -6.0492628824        9.8011376727       -0.7424301665
 H        -6.5230202001       10.9091390388       -1.9735340170
 H        -5.5434351009        8.0189682280       -2.3465534955
 H        -4.9419629136        9.6072711749       -2.9617140739
 H        -6.8620617515        5.7806145347       -6.3677837907
 H        -7.9277869372        6.3159607857       -4.9033669092
 H        -5.8127892546        4.0844311065       -4.2856308612
 H        -7.1877673371        3.5564490758       -5.0434843874
 H        -8.2976758184        1.7753110308       -0.4029812773
 H        -9.3773293518        2.4957939308       -1.7018990941
 H        -9.9312505815        3.7919297891        0.9816932813
 H        -9.9245561546        1.9788635946        0.9085319775
 H       -14.2893507965        2.5606656840        0.2946604549
 H       -13.7832096857        2.2839633277        1.9733608969
 H       -16.0635074014        1.0449306201        1.0442117119
 H       -15.0894247645        0.4711448960        2.2353760362
 H       -13.2856692334       -0.3193534953        2.7046989940
 H       -12.5429876740       -1.7770391540        1.9975619947
 H       -12.4300645357       -2.9395615390        4.1537365172
 H       -13.1230752975       -1.5516929224        5.0330515953
 H       -10.1372126580        0.6437857764        8.1976352313
 H       -11.7467933973        1.1753954734        7.7611001694
 H       -10.5003113144        1.4021732454        6.6940745900
 H       -10.8263204796       -3.3655554701        6.0786936658
 H        -9.2781315836       -3.0184431977        6.2555105500
 H        -9.8267573864       -3.1399925936        4.5317372522
 H        -9.0020725160        0.4565777607        5.3592879590
 H        -8.7129449047       -0.7328133301        4.2909404738
 H        -8.2220623053       -0.9685888464        6.0376494177
 H       -17.1324305377       -0.7431487341        1.7711852323
 H       -17.1387504647       -2.3636782187        2.5001687425
 H       -17.4697959935       -2.0491504136        0.8196569464
 H       -14.0835517918       -3.3839895563        0.1921946376
 H       -15.9418635275       -3.2798762670       -0.3172071926
 H       -15.1695664683       -4.1289877785        1.2758783153
 H       -13.5897595712        1.2876652115       -2.4067503773
 H       -12.7340937215        2.7104288685       -2.6070691739
 H       -14.2186732833        2.7460154685       -1.3988985582
 H       -10.9700070992        0.8623121091       -2.5215731551
 H       -11.9545701620       -0.2117545734       -1.7307287889
 H       -10.4193720620        0.1728743427       -0.9027743074
 H        -5.5672374907        2.2563674241       -1.3738940078
 H        -5.6182764719        2.4832659282       -2.9765950698
 H        -7.1197749213        1.9053464926       -2.1614547992
 H        -4.8979518125        4.6514103063       -2.3460290600
 H        -5.3721210704        4.8635366001       -0.6269205343
 H        -5.8305271280        5.9007980852       -2.0190739305
 H        -6.9562732927        9.4094860879       -6.9018861751
 H        -8.0748651986        8.2679877088       -6.1735544490
 H        -6.9369863463        7.6458018120       -7.2751704029
 H        -5.0617950116       10.0785903191       -6.0063209297
 H        -4.3528566595        8.5688264802       -6.5844116166
 H        -4.1140804965        8.9928108209       -4.7898821048
 H       -11.0078390765       10.4477086885       -0.5269231133
 H       -10.6930193254        8.9812747267       -1.3286957322
 H       -10.0452341872       10.2383438380       -2.0676701694
 H        -9.2034533731       11.7473609685        0.2916865540
 H        -7.9404662871       11.4280882049       -0.7373151649
 H        -7.6794756127       11.1253199732        0.9691599537
 Na       -9.6546892559        5.9991007540       -0.9611025447
