117

 C        -8.1931644147        9.0868078868        2.3041635414
 C        -8.6365453746        8.6188721138        0.9654950777
 O        -9.0525276663        7.4583243440        0.7684317408
 C        -8.4983229138        9.6126723522       -0.3222227898
 C        -7.6335426399        8.7192674294       -1.3946532593
 O        -8.2766438719        7.8675417599       -2.0124218624
 C        -6.1006240533        8.9284616332       -1.6495657829
 C        -5.5792022241        8.3458070422       -2.9500599156
 C        -6.4101644784        8.5616666458       -4.2087460524
 O        -7.4217760083        9.3051300843       -4.1844220708
 C        -5.9313080661        7.9337438350       -5.4616028568
 C        -5.6944336013        6.3759098370       -5.2972839092
 O        -4.6420006964        5.9526742035       -4.7770791067
 C        -6.9911205236        5.4368919905       -5.3180757060
 C        -6.7982694606        4.2473945847       -4.2976788088
 C        -7.5909875664        4.4615572605       -3.0297138437
 O        -8.5597565739        5.1934230800       -3.0429516995
 C        -6.9882544124        3.6923717745       -1.7172970149
 C        -8.0953238627        3.7248888305       -0.6645457760
 O        -8.5585918749        4.7959410341       -0.2058519418
 C        -8.7589002492        2.5025170233        0.0672660931
 C       -10.2215243838        2.8584923731        0.5433385906
 C       -11.4451133347        3.1708302878       -0.6370001009
 O       -11.4258466163        4.1308561805       -1.3938980064
 C       -12.3291083985        1.9529575312       -0.8985578343
 C       -13.0298271450        1.5838481304        0.4672252829
 O       -12.3828447574        1.0812580405        1.3174912374
 C       -14.4714534848        1.9914771745        0.8529050942
 C       -15.5411804958        0.8014994943        0.7418395473
 C       -14.9548985954       -0.5379023457        0.5055339128
 O       -14.0957020028       -0.6248451759       -0.3549658078
 C       -15.2377000417       -1.9496609453        1.2389272460
 C       -14.5560642996       -2.0259826482        2.6889583965
 O       -15.1148596285       -2.6480297374        3.5251125116
 C       -13.1799518147       -1.2702012976        2.9983258846
 C       -12.4817887883       -1.4062029425        4.3283223232
 C       -11.2618090130       -0.4767869179        4.5808083073
 O       -11.0633955666        0.5413432359        3.9719458158
 C       -10.3838746468       -0.8032623084        5.9220678831
 C       -10.9834460627       -0.1622111360        7.1654683113
 O       -11.7072950581       -0.8163061010        7.9563757669
 C       -10.9155865381        1.2827786041        7.4159003176
 C       -10.1664930627       -2.3600746642        6.2985721047
 C        -8.9467279411       -0.3001046228        5.7684505176
 C       -16.7969809841       -2.2876190187        1.3043773988
 C       -14.5358687040       -3.0951403380        0.4640440714
 C       -13.4076531428        2.2105384968       -2.0565441292
 C       -11.4463553899        0.6997017087       -1.3995724544
 C        -6.6315749769        2.2564678296       -2.1815997385
 C        -5.7822005841        4.4009445736       -1.0322522067
 C        -7.0082146440        8.2976419686       -6.5162655702
 C        -4.5760442181        8.5840782064       -5.9386422900
 C        -9.9338782550        9.8431771759       -0.9494063820
 C        -7.9027194245       10.9952113167       -0.1119175319
 H        -9.0047673613        9.7353031534        2.7845122043
 H        -7.2620312658        9.6613923371        2.2456390823
 H        -7.9404703323        8.2881520203        3.0406898021
 H        -5.5611501453        8.7354161760       -0.7029098806
 H        -6.0061874157       10.0693027338       -1.7765586818
 H        -5.4472043047        7.2705341717       -2.6802220823
 H        -4.4974683574        8.6245184756       -3.1222914380
 H        -6.9715707750        4.9844409930       -6.3237378938
 H        -7.8279553939        6.1679275743       -5.0045877805
 H        -5.7065859113        4.1050078994       -4.1842914948
 H        -7.1159177141        3.3224498529       -4.8255206637
 H        -8.1680590036        2.3462337122        0.9949490330
 H        -8.7873491687        1.6879928423       -0.6965758444
 H       -10.1158221478        3.6077569541        1.3619441694
 H       -10.5984837815        1.9169033336        0.9258885496
 H       -14.7290916549        2.8095326822        0.1790967467
 H       -14.4615520018        2.4336905305        1.7413071072
 H       -16.1551496949        1.0232914217       -0.1603891160
 H       -16.2461909301        0.7978129207        1.5182635558
 H       -13.0800683526       -0.2009639047        2.7124474754
 H       -12.6096574447       -1.6330256081        2.1533817127
 H       -12.0556241927       -2.3205641952        4.6392825978
 H       -13.3013692690       -1.0557795306        5.0745826464
 H        -9.9700923253        1.8368614658        7.2200039364
 H       -11.2106731633        1.5161589283        8.4345923311
 H       -11.7184085828        1.8991350494        6.8689262047
 H       -11.1200298016       -2.7641297483        6.5088436301
 H        -9.5253750370       -2.5633955390        7.1550894727
 H        -9.5708295469       -2.9463913021        5.4879477879
 H        -9.0189776064        0.7038009529        5.3130308092
 H        -8.4360610576       -1.0281549531        5.0613741655
 H        -8.2709578625       -0.2414673419        6.6657913196
 H       -17.3733498678       -2.3405304717        2.2619863052
 H       -16.8550470521       -3.2257829332        0.8320091771
 H       -17.3339486662       -1.4857136878        0.8559547939
 H       -13.5662002857       -2.8027797345        0.1298492516
 H       -15.0678069517       -3.3386256870       -0.5124141716
 H       -14.5614613541       -4.1032084225        1.0155622813
 H       -14.4262756160        2.2940088697       -1.7152303669
 H       -13.3652550415        1.4941861247       -2.8594219287
 H       -13.1046635331        3.1873115761       -2.6237408667
 H       -10.6052564535        0.9369182198       -2.0528614297
 H       -12.0444605775        0.0246632206       -1.9324266287
 H       -10.8774521336        0.3840284376       -0.5228757068
 H        -6.5405264812        1.4598687649       -1.5293811470
 H        -5.6432981758        2.2358839553       -2.5024040932
 H        -7.1774015300        2.0253748498       -3.0785993478
 H        -5.2022580134        4.8577569577       -1.8056839284
 H        -5.2339371418        3.6825102190       -0.3949096192
 H        -6.1640142013        5.2850474289       -0.4440251163
 H        -7.1294241039        9.3296362934       -6.3493915662
 H        -7.9795286964        7.8402924240       -6.2530307764
 H        -6.6956566794        8.0009806642       -7.4888055681
 H        -4.7657290911        9.5711238106       -5.8548209478
 H        -4.5570253566        8.3931649051       -7.0006294125
 H        -3.8303077058        8.1086161062       -5.4032127529
 H       -10.6715511734       10.0264677616       -0.1979895605
 H       -10.3267241485        8.8276462130       -1.2718167875
 H       -10.1733200520       10.6110368343       -1.8007692131
 H        -7.7843258739       11.0783037680        0.9808711286
 H        -8.4718510147       11.7024688169       -0.5383097493
 H        -6.8492313888       11.1317748265       -0.4297475808
 Na       -9.9584726093        6.1402122425       -1.3428008075
