117

 C        -8.3441750094        9.1703849439        2.2633668701
 C        -8.5904391481        8.5047697921        0.8956878896
 O        -9.1474807848        7.4553945214        0.8659413369
 C        -8.3404600544        9.3938018276       -0.4909788346
 C        -7.5761043479        8.4919329163       -1.4348187674
 O        -8.1503124929        7.5750286195       -2.0109170452
 C        -6.1059757997        8.8129590431       -1.8081002372
 C        -5.7548713451        7.7847195508       -2.8912093480
 C        -6.2501649984        8.4761104773       -4.1654773862
 O        -6.9930272054        9.4330303715       -4.2444118299
 C        -5.9511491879        7.7829177433       -5.6050759941
 C        -5.6612074313        6.3199549020       -5.2360232558
 O        -4.6155793314        5.8653526508       -4.9997543545
 C        -6.9498027545        5.4133819859       -5.2237735541
 C        -6.8029608849        4.1698851253       -4.2361194768
 C        -7.5705992525        4.2777741726       -2.9216344254
 O        -8.4875203223        5.0741166597       -2.9175691034
 C        -7.1704764100        3.4664121449       -1.7530723100
 C        -8.3932693108        3.6583390054       -0.7676143836
 O        -8.6662559596        4.7441179236       -0.3798061670
 C        -9.0145528619        2.5450067840       -0.0950127709
 C       -10.3630372028        2.9486402732        0.5662694938
 C       -11.4192400323        3.2239769638       -0.6243930659
 O       -11.1621568267        4.2358659092       -1.2813479896
 C       -12.4223127052        2.0715233678       -1.0211736761
 C       -13.2968931781        1.7935922858        0.4018079844
 O       -12.6520094258        1.4093417700        1.3938212183
 C       -14.8223501260        1.9067338297        0.4985066298
 C       -15.5432816309        0.5810841354        0.7411235601
 C       -14.6698819304       -0.6725496873        0.5064697587
 O       -13.7640302364       -0.4158680311       -0.3070134071
 C       -14.9607576327       -1.9220218314        1.2174925851
 C       -14.4159631440       -1.8610998078        2.8017481142
 O       -15.0057586240       -2.6164006908        3.5660718258
 C       -13.1904595111       -1.1312132699        3.1953106112
 C       -12.5995488263       -1.4454608587        4.6313819818
 C       -11.3521639603       -0.5331923612        4.8759406630
 O       -11.1840860686        0.5011988350        4.2390882403
 C       -10.3882101762       -0.7015593466        6.1377212521
 C       -11.0949136000        0.1226259594        7.2093257608
 O       -11.8036958208       -0.3687002055        8.0111869224
 C       -11.0396098056        1.6036784357        7.1581552667
 C       -10.2846791578       -2.2092512853        6.4166282491
 C        -8.9930058075       -0.0694570662        5.7329016014
 C       -16.5193035703       -2.1166103830        1.3154860246
 C       -14.2735428118       -3.0425995471        0.4365561019
 C       -13.2712549260        2.7007694379       -2.2372776922
 C       -11.6708672384        0.7466723555       -1.4354722580
 C        -6.7648595000        2.0184693562       -2.0437323533
 C        -5.9091679355        4.2800826186       -1.2277914863
 C        -6.9082173810        7.7878119716       -6.7538480681
 C        -4.5870896094        8.5027539516       -5.9442921044
 C        -9.8105839367        9.5681009940       -0.9260070681
 C        -7.6244826733       10.7320964853       -0.0328093817
 H        -9.1131398515        9.9692628011        2.4926990471
 H        -7.4322328043        9.5961244855        2.4993529523
 H        -8.4619255488        8.3899617601        2.9395963739
 H        -5.4538834083        8.7988830001       -0.9312961172
 H        -6.0027357242        9.7863064192       -2.1962851645
 H        -6.1632333028        6.7889161006       -2.6236610862
 H        -4.7338105739        7.5841370331       -2.8785460415
 H        -7.1752374834        5.0822420926       -6.2439705638
 H        -7.6740527813        6.0530899882       -4.7811719918
 H        -5.7437486116        4.0946549020       -4.0150415370
 H        -7.0511500962        3.2711546001       -4.7680786779
 H        -8.2910421890        2.5381479693        0.7371777907
 H        -8.9678874554        1.6617740781       -0.7445921285
 H       -10.0936490309        3.9218180904        0.9852388970
 H       -10.4610815410        2.1969981130        1.4262601104
 H       -15.1996065819        2.6135128352       -0.2786448172
 H       -15.0747985979        2.7230972436        1.3504119393
 H       -16.3215675453        0.4922463895        0.0078668430
 H       -16.0567594292        0.6410847651        1.7151004981
 H       -13.4749073246       -0.1166344984        2.9061282446
 H       -12.3930977226       -1.1907884366        2.4095457479
 H       -12.4366937773       -2.5693781037        4.7416903978
 H       -13.1925440826       -1.0990010688        5.3997127652
 H       -10.3015041409        2.0804015018        6.6389953484
 H       -11.0545320691        2.0592485566        8.1638242166
 H       -11.9087287358        2.0127006360        6.7398172344
 H       -11.3034899109       -2.6376918817        6.7153813205
 H        -9.4535054284       -2.4125078484        7.0434066849
 H        -9.9793935956       -2.6825487698        5.5436943493
 H        -9.0754056595        0.9813105662        5.4901136569
 H        -8.4624014698       -0.6721919203        5.0431811716
 H        -8.3632625507       -0.0825506142        6.6009751943
 H       -16.7734581200       -2.8711401578        2.0186632635
 H       -16.8744741577       -2.5426909391        0.3594461188
 H       -17.0077260527       -1.2264306398        1.7114941089
 H       -13.2643507178       -3.3843958871        0.7478479690
 H       -13.9847642903       -2.6519111108       -0.5758370489
 H       -14.9370734690       -3.7852392813        0.1982236848
 H       -13.7193185021        3.6476914331       -1.8228678118
 H       -14.1564971276        2.0891903988       -2.5732217133
 H       -12.7679930383        2.8804880557       -3.1506905857
 H       -10.6781988063        0.8135351712       -1.7888174139
 H       -12.2370657975        0.1658757639       -2.1940922119
 H       -11.4670358159        0.2259921144       -0.4875939743
 H        -6.1945241230        1.5867182252       -1.2066194326
 H        -6.2049196389        1.5402913875       -2.9400653312
 H        -7.7181851766        1.2824747666       -2.1059796701
 H        -5.4087740674        4.8534128874       -2.0110994485
 H        -5.1779990850        3.5161001591       -0.8957639819
 H        -6.1440183771        4.8839357102       -0.4250886682
 H        -6.8414417330        8.6986144338       -7.3592218927
 H        -7.8722511187        7.7204088469       -6.2742512688
 H        -6.6491328041        6.9002573865       -7.3451302042
 H        -4.9876579973        9.5667405166       -6.3137852332
 H        -4.0729446514        7.9250468898       -6.8136634103
 H        -4.0605898273        8.3212774042       -4.9736918411
 H       -10.2892511517       10.4745181645       -0.5366748427
 H       -10.5340103776        8.8376858706       -0.7848296071
 H        -9.7858019711        9.8457576840       -1.9421778958
 H        -8.2569596396       11.4245026393        0.4663900592
 H        -7.1047895603       11.1595741667       -0.9644115677
 H        -6.8334453661       10.5092304953        0.6696926844
 Na      -10.0003159015        6.4644973331       -1.2996696570
