117

 C        -3.8175314418       10.8778144465        3.8572549568
 C        -5.0861959986       10.1900234345        3.6229372501
 O        -5.6334303515       10.3979499395        2.5355714560
 C        -5.6897014064        9.0793958939        4.5817846524
 C        -5.3711110884        7.6528564098        4.0526395150
 O        -4.6712796132        6.8816528570        4.7461161827
 C        -5.8476008072        7.1895306972        2.6271656729
 C        -6.1391001911        5.6654156776        2.4785661472
 C        -7.1610336645        5.2285341160        1.2832146516
 O        -8.3696514721        5.2350602328        1.5063273991
 C        -6.5488547253        4.6842774806       -0.0719488663
 C        -6.1984858534        3.1494905112        0.3343414671
 O        -5.0670127145        2.7282861725        0.4887684481
 C        -7.4084082801        2.2894151677        0.7512927774
 C        -7.5644579221        1.0262755442       -0.1130167233
 C        -8.6993784642        0.1129383758        0.5531865784
 O        -9.6852278571       -0.2683812229       -0.0898328903
 C        -8.4679450958       -0.5333846998        1.9391623906
 C        -9.2154335347        0.3697626924        3.1318253935
 O        -8.5051143931        0.8089624840        4.0449864706
 C       -10.7935398052        0.4097848220        3.0575201624
 C       -11.2764232042        1.8843656929        3.1016785182
 C       -11.1906062139        2.4971011420        1.7425204144
 O       -10.3289402716        2.2375998047        0.9298245825
 C       -12.2137594760        3.6378186765        1.3463136493
 C       -13.2540476027        2.9663280950        0.3626506411
 O       -12.8402582472        2.1494942650       -0.4617794102
 C       -14.7985358576        3.1093545494        0.4940708340
 C       -15.3942556778        3.4243292801       -0.8568185426
 C       -14.6227649011        4.3353412330       -1.7353008107
 O       -13.5639978637        4.7798760955       -1.4201131649
 C       -15.1473543087        4.5597122430       -3.2016408250
 C       -14.0283128764        3.7612480373       -4.0399780598
 O       -14.2110817045        2.5687944150       -4.2119430589
 C       -12.7402039604        4.6244801603       -4.3706614881
 C       -11.8383636884        3.5738690906       -5.0457791104
 C       -10.8710181645        2.8697784206       -4.1348796287
 O       -10.6637617671        3.2469649008       -3.0169376598
 C       -10.2065283610        1.5720550347       -4.8017338568
 C       -11.1542597122        0.4190921334       -4.6050872472
 O       -11.7519860409        0.3108884240       -3.5265022329
 C       -11.4962172926       -0.6941363907       -5.5814131843
 C       -10.1688649410        1.8937570874       -6.3941464206
 C        -8.7924165331        1.2213681738       -4.2776098393
 C       -16.4877314971        3.9994282698       -3.5053122210
 C       -15.1674190681        6.1072890176       -3.4151492037
 C       -12.8192799115        4.2887827012        2.5975760654
 C       -11.3370722197        4.6441742342        0.5710660712
 C        -9.2637200931       -1.9008108878        1.9021160238
 C        -6.8904471234       -0.6238622577        2.2455217296
 C        -7.5325082456        4.6792558393       -1.2649246359
 C        -5.2564872762        5.4865687364       -0.3940830561
 C        -5.0819324657        9.1093657452        6.0007276289
 C        -7.3156016986        9.1889613478        4.7038789575
 H        -3.6793741461       11.2369847633        4.9157787945
 H        -3.6980963269       11.6228648126        3.1111934751
 H        -2.9606464540       10.2046396580        3.6715197322
 H        -5.0592475798        7.5256092401        1.8732679313
 H        -6.6495532664        7.8975504282        2.5134216115
 H        -6.5723466856        5.1897392739        3.3416229981
 H        -5.2821318845        5.0054080263        2.3471335252
 H        -8.3470887384        2.8300964041        0.5708928066
 H        -7.4219505945        1.8763953516        1.8180512042
 H        -6.5714331195        0.4741109748       -0.2062210818
 H        -7.9734246592        1.2494609168       -1.0980418295
 H       -11.0795944243       -0.1108585193        3.9549200237
 H       -11.2090615462       -0.1096413500        2.2267728703
 H       -10.5728958640        2.4159490341        3.6747254770
 H       -12.3269130588        2.0624464833        3.4808762123
 H       -15.1005865369        3.9624544135        1.0606719471
 H       -15.2443290187        2.2139709142        0.8060880075
 H       -16.4706872104        3.7386174695       -0.8785536607
 H       -15.4285818027        2.4830147264       -1.4129055729
 H       -12.1956384148        5.0499644912       -3.5064353174
 H       -12.9770429220        5.4324881353       -5.0692633058
 H       -11.3365520262        3.8993505364       -5.9693171255
 H       -12.3910719187        2.7165998662       -5.4737606655
 H       -10.7464394404       -1.4671422129       -5.3918815473
 H       -11.5163730588       -0.3319806250       -6.6410878264
 H       -12.5301396296       -0.9622697760       -5.3914950843
 H        -9.8609789164        2.9025007950       -6.6875124800
 H       -11.1439582326        1.9052139267       -6.9179555187
 H        -9.5152193069        1.1850897834       -6.8567836932
 H        -8.8303237976        0.9474879381       -3.1770325678
 H        -8.1915620439        2.1135508401       -4.2591589188
 H        -8.2707724929        0.4943695937       -4.8627508592
 H       -16.5731906521        2.9805291886       -3.1298439424
 H       -16.6997894640        3.9104378026       -4.5280580098
 H       -17.2635544247        4.6077018069       -3.0343632587
 H       -15.6327204497        6.3969706763       -4.3247087807
 H       -14.1754953986        6.5011257117       -3.3799849272
 H       -15.7394106451        6.5971608810       -2.6266919632
 H       -12.0349165865        4.6694076144        3.1696281972
 H       -13.4003725151        3.6578030473        3.2048759893
 H       -13.5405679010        4.9717889278        2.3097160680
 H       -10.4470277418        4.8452081092        1.1748308980
 H       -11.7885639202        5.6209791718        0.4990777986
 H       -11.1341895622        4.3539307916       -0.4198346144
 H        -9.0939394471       -2.4000471952        2.8882372936
 H        -8.8738929771       -2.6241013350        1.1815960563
 H       -10.2487694761       -1.7896249409        1.6082334473
 H        -6.3103945770       -0.4313107500        1.3386719866
 H        -6.5808422474       -1.6488436436        2.6402868390
 H        -6.5892040250        0.1088081032        2.9120039732
 H        -7.3728379692        5.5102569514       -1.8851018860
 H        -8.6286132047        4.7325283530       -1.0445544446
 H        -7.3869768157        3.7479961129       -1.8660739477
 H        -5.5511948942        6.5269813274       -0.4921275582
 H        -4.7491142307        5.1261999356       -1.3193878194
 H        -4.7058216224        5.4859627819        0.5017470441
 H        -3.9919400894        9.0789728794        6.0821779457
 H        -5.4875418648        8.2734145001        6.5488013870
 H        -5.4850509672        9.9249878289        6.6209730290
 H        -7.7245029468        9.2430150287        3.6737403503
 H        -7.7720220134       10.0300316435        5.2324445396
 H        -7.6580855290        8.2469939195        5.1950524783
 Na      -10.9347831588        1.4857544253       -1.3697017898
