117

 C        -8.3883121623        8.6537360669        2.0434467394
 C        -8.8004773267        8.4605346954        0.5954114795
 O        -9.6341281331        7.6844512010        0.2026015175
 C        -8.0716076970        9.3479816739       -0.5979912209
 C        -7.4677882952        8.3934026563       -1.5930119243
 O        -8.0725498523        7.3762924078       -1.9937876274
 C        -5.8964499374        8.4200922885       -1.9224456491
 C        -5.3187335422        7.6401397123       -3.1229428030
 C        -5.8459799842        8.1142067058       -4.4760117487
 O        -6.3912171302        9.1775931637       -4.7116778177
 C        -5.6171513374        7.0520124257       -5.7049485939
 C        -5.7432888110        5.4796479416       -5.2383505534
 O        -4.7512351362        4.7968310502       -4.9543196510
 C        -7.1447855248        4.9069156033       -5.0819868808
 C        -7.3600538739        3.5253162078       -4.5102195943
 C        -7.6763784288        3.6665090811       -3.0140487656
 O        -8.4356657332        4.5508356873       -2.5688276380
 C        -7.0359042498        2.8655163236       -1.6698070127
 C        -8.0667244003        3.2017905844       -0.6300126852
 O        -7.7328778955        3.9950380678        0.2130876520
 C        -9.5444397925        2.5443895565       -0.6136588175
 C       -10.5794632169        3.1743060340        0.3474058684
 C       -11.6763402823        3.9105292619       -0.5517883008
 O       -11.5146047886        5.0731536203       -0.9079471852
 C       -12.9554557677        3.1594172186       -1.1323976792
 C       -14.1551857328        2.5871875405       -0.1239588665
 O       -14.5386216412        3.1116479403        0.8431165853
 C       -14.8930193849        1.3242227951       -0.6452743233
 C       -15.0939519591        0.1428803978        0.4315025168
 C       -14.1641956564       -1.0684976442        0.5097890224
 O       -13.0568839872       -1.0320285968        0.0211077368
 C       -14.6381966859       -2.1901469293        1.5016322035
 C       -14.2454883627       -1.7388048851        2.9955032425
 O       -15.0057699406       -1.8859515209        3.9171400866
 C       -12.9230793505       -0.8552541456        3.2367445848
 C       -12.4609361146       -1.1645901356        4.7576778163
 C       -11.4966320648       -0.0581255854        5.2082185269
 O       -11.0678369725        0.7663934251        4.3924495043
 C       -10.9216908969       -0.0241956161        6.6079739553
 C       -11.4272091680        1.2337775877        7.4044824538
 O       -11.8641763974        1.0754943408        8.5714452512
 C       -11.4784077493        2.6516957659        6.8354157387
 C       -11.1403965266       -1.3581229150        7.4705281372
 C        -9.3916175403        0.1474058051        6.3294049394
 C       -16.1909084823       -2.3244006801        1.3827922729
 C       -13.8274795520       -3.4820960728        1.3152591028
 C       -13.6461748020        4.1296591561       -2.1167785782
 C       -12.2641976431        1.9968195154       -1.9265641560
 C        -6.9224621246        1.4236635930       -1.9995053969
 C        -5.6313853189        3.4084218830       -1.4224317934
 C        -6.6042705549        7.3789009213       -6.8036660637
 C        -4.0549762271        7.2690787338       -6.1411467297
 C        -9.1398237729       10.0253664020       -1.5095597821
 C        -7.1942583276       10.4377679116       -0.0744205884
 H        -7.3803685535        8.7552482195        2.0609206345
 H        -8.5937913743        7.8102233148        2.7204101897
 H        -8.8952388662        9.5453379558        2.4821818767
 H        -5.5088103584        7.9552985455       -0.9305060326
 H        -5.5338397485        9.4378914819       -1.9717707737
 H        -5.5548044159        6.4856157759       -3.0219817240
 H        -4.2789708648        7.6611940717       -3.1370601636
 H        -7.7152126605        4.7395879775       -6.0393482467
 H        -7.8859887705        5.5627257069       -4.6732444882
 H        -6.5142519256        2.8345739986       -4.7326795136
 H        -8.2615586442        3.1644404614       -5.0035702031
 H        -9.3395138602        1.5118179160       -0.7280088907
 H        -9.7440807278        2.7750416088       -1.7001699717
 H       -10.0226187258        3.9385011427        0.9009081539
 H       -11.0285033181        2.3431002774        1.0050136017
 H       -14.5120184080        0.9316949726       -1.7145660862
 H       -15.9453512650        1.7321126087       -0.7911160797
 H       -16.0617508404       -0.2011366500        0.2060145877
 H       -15.0770677555        0.5461852253        1.3433705479
 H       -13.2542384055        0.2255727577        3.2029080122
 H       -12.0795548735       -1.1132379978        2.5211623303
 H       -11.9916280485       -2.1990508810        4.7269856193
 H       -13.2282888267       -1.2546896126        5.5252436154
 H       -10.7305555782        3.3245594388        7.3167105542
 H       -12.3701070818        3.1629818440        6.9936050137
 H       -11.1895767920        2.8332130275        5.7485710453
 H       -12.1592590024       -1.5278193311        7.7555872857
 H       -10.6724512159       -1.2168395819        8.3891390777
 H       -10.7997273804       -2.2751222806        6.8356275986
 H        -9.3722391105        0.8907317802        5.5582957104
 H        -9.0216959618       -0.7402417899        5.7867989117
 H        -8.8398044654        0.3500519489        7.2939570829
 H       -16.3710257551       -2.1747745671        0.2818314332
 H       -16.5942511052       -1.6387004808        2.0871170072
 H       -16.6429428556       -3.2715888004        1.6758455994
 H       -13.8653666693       -4.0142031854        0.3460483511
 H       -13.8702712281       -4.0946472182        2.2059404658
 H       -12.6841936738       -3.1481850207        1.4401575319
 H       -14.5586049914        4.5348613609       -1.6944844159
 H       -14.0874535816        3.7014237251       -2.9802089721
 H       -13.0538855191        5.1096651280       -2.4535632449
 H       -11.3730700177        2.1002817621       -2.5011593977
 H       -12.9316461141        1.3966249276       -2.5141437166
 H       -12.1202237414        1.1835313492       -1.1369730198
 H        -6.5857456565        0.7150435047       -1.1093656652
 H        -6.2468187837        1.2301725322       -2.8403649502
 H        -7.8582525265        0.9772314165       -2.1339553654
 H        -5.0655095690        3.3766845504       -2.3053947653
 H        -5.1255711730        2.5778941714       -0.8151490118
 H        -5.5160533304        4.3216434003       -0.7989913052
 H        -6.4691878829        8.2564385701       -7.4092669951
 H        -7.6021270375        7.4294921063       -6.2284841438
 H        -6.6472653052        6.4578452675       -7.4053016704
 H        -3.8617222856        8.3661397200       -6.5672545590
 H        -3.8408634792        6.5036095220       -6.9379171240
 H        -3.3125539431        7.2007899775       -5.1709251036
 H        -9.6852182156       10.8546299804       -1.1026950161
 H        -9.8652150802        9.2353091119       -1.7797871385
 H        -8.7037607840       10.3027539416       -2.5638977873
 H        -7.7742424169       10.9240269658        0.7203042997
 H        -7.2101087520       11.1430062665       -0.7977625308
 H        -6.1065691801       10.2424528913        0.1240037936
 Na       -9.4632473160        5.7979462732       -0.9001167136
