117

 C        -8.2351941978        8.7541927311        1.8458834558
 C        -8.6039922957        8.5507539820        0.4395474944
 O        -9.6834151787        7.9288970318        0.2461188483
 C        -7.9048352141        9.4015607999       -0.7291704497
 C        -7.1465608880        8.3905576145       -1.6297531577
 O        -7.5979810690        7.2589562026       -1.9356758811
 C        -5.6661676123        8.7285971443       -2.2017580267
 C        -5.1454742024        7.6215868500       -3.1152692196
 C        -5.8044134350        7.7204440195       -4.4761831843
 O        -6.4780172789        8.7528134040       -4.6598778189
 C        -5.5179590737        6.6928533109       -5.6344871447
 C        -5.8785630410        5.1353121499       -5.1465286138
 O        -4.9546470700        4.6859983515       -4.5539854747
 C        -7.3003821735        4.5664405329       -5.1137178045
 C        -7.2807069393        3.3160847410       -4.3575950965
 C        -7.7664978847        3.6434282724       -2.9754371357
 O        -8.4912663828        4.6104231807       -2.6960404669
 C        -7.2759510074        2.8235347349       -1.7542202975
 C        -8.3057191553        2.9212506362       -0.6407187010
 O        -8.0942063366        3.5898430543        0.3402626466
 C        -9.7021639532        2.1354218534       -0.7512206471
 C       -10.9562793658        2.7667283616        0.0051270351
 C       -11.8555567827        3.8014440996       -0.8566127031
 O       -11.4299427847        4.9466313120       -1.0013900502
 C       -13.0813750665        3.2918731138       -1.5067443034
 C       -14.0044340908        2.4427669487       -0.4124840810
 O       -14.4001992451        3.0828681026        0.4965516849
 C       -14.6895499818        1.0949922165       -0.6946875667
 C       -15.1028648405        0.3798775951        0.5639810020
 C       -14.2335095415       -0.8954306834        0.6666593737
 O       -13.1892667092       -0.8588984181        0.0403082448
 C       -14.5053437982       -2.1839524564        1.6118126300
 C       -14.1618736458       -1.5924909178        3.1423117516
 O       -15.1223714829       -1.3584590831        3.8447293444
 C       -12.7506644111       -1.1476445495        3.5950052251
 C       -12.6800073123       -0.8713090009        5.0384246307
 C       -11.4358294692        0.1165820664        5.3892991011
 O       -11.0860262423        0.9447028567        4.5339517508
 C       -10.9267756328        0.1482508291        6.8111482084
 C       -11.4736003611        1.5641181986        7.3225487215
 O       -11.9954018856        1.6381145137        8.4490112833
 C       -11.4898203008        2.8827342748        6.5765772963
 C       -11.3900679691       -1.0512730742        7.6484867399
 C        -9.3371266194        0.4323266203        6.9557491178
 C       -16.0120482850       -2.4314035940        1.5690599118
 C       -13.3947968545       -3.2499299610        1.2550563380
 C       -13.9801199751        4.4597083962       -1.7817251406
 C       -12.6539505660        2.2517105223       -2.5827469755
 C        -7.1587630852        1.3046393568       -2.2326256041
 C        -5.9080575567        3.2682280114       -1.3207842931
 C        -6.4412197884        7.1282375861       -6.7650333769
 C        -3.9808205229        6.7016634430       -5.8840328132
 C        -9.0471745245       10.0388383736       -1.6131892246
 C        -6.8740364258       10.4578726316       -0.1906417629
 H        -7.2743845227        8.3173510084        2.0917106074
 H        -8.9781376956        8.3311892055        2.6036519394
 H        -8.1997976939        9.9088371570        2.0904985224
 H        -5.0082620812        8.8282684850       -1.3357799925
 H        -5.7571263211        9.6457358922       -2.7638654091
 H        -5.4777567992        6.5405334761       -2.7852664977
 H        -4.0922578315        7.5756323413       -3.1799247042
 H        -7.5449903896        4.3343308419       -6.2040146412
 H        -8.1652527524        5.1671465919       -4.8815493594
 H        -6.2561998459        2.9932675253       -4.3643872711
 H        -7.9671051839        2.5544945297       -4.8477542100
 H        -9.5433529720        1.0992603353       -0.4275695149
 H        -9.8563197148        1.9214544525       -1.7743742282
 H       -10.7220350830        3.3304421723        0.8254687276
 H       -11.4259512593        1.8011334547        0.2623394496
 H       -14.0405651764        0.4152642800       -1.2500420945
 H       -15.5205053762        1.3849984211       -1.1853351783
 H       -16.2472130582        0.2304078975        0.5464232861
 H       -14.8277698420        1.0645593756        1.4169974551
 H       -12.6165490989       -0.1531929230        3.2572910501
 H       -12.0105457350       -1.8473945472        3.2962897622
 H       -12.5099676784       -1.8479107812        5.5974819757
 H       -13.5801816670       -0.5162715422        5.4191475827
 H       -11.9249333233        3.6641611295        7.1816610906
 H       -12.1981851468        2.9032853839        5.7504383370
 H       -10.5007313749        3.3565025406        6.2265333073
 H       -12.3841800227       -0.9007993419        8.1310068881
 H       -10.7621482795       -1.0291092141        8.4804318364
 H       -11.2428783277       -2.0263668129        7.0307623643
 H        -9.1224312556        1.2381102887        6.2996767747
 H        -8.8686772732       -0.4462445742        6.5914460861
 H        -9.0885406109        0.5389804620        8.0136984117
 H       -16.2055424450       -3.0460463462        0.6696596960
 H       -16.4956327477       -1.4733635347        1.5622596857
 H       -16.3343264811       -3.0320780664        2.4105499216
 H       -12.6607588662       -2.8238078848        0.6614575102
 H       -13.8398367480       -4.1982092033        0.9737498440
 H       -12.8447285654       -3.6162305489        2.2022404601
 H       -14.0113305743        5.2934732928       -1.1836439713
 H       -14.9417018466        4.2011965674       -1.8293701336
 H       -13.6905989577        4.9430202328       -2.7795591976
 H       -11.9934208590        2.7357182766       -3.2596043064
 H       -13.4612786509        1.9073046466       -3.2151015753
 H       -12.0241019156        1.3614239522       -2.3071837629
 H        -6.9791164547        0.4929761252       -1.4909166744
 H        -6.3706923877        1.1333303834       -2.8572826988
 H        -8.0158738337        1.0893522956       -2.7168191347
 H        -5.2335619931        3.0416251720       -2.1201811678
 H        -5.6282359471        2.6035082102       -0.4116249800
 H        -5.7174583842        4.3273139412       -1.1666729044
 H        -6.5654628387        8.1838987672       -6.6594985810
 H        -7.5037248786        6.7905341616       -6.8107268651
 H        -6.0689570301        6.7180938398       -7.7004497686
 H        -3.4367656088        7.6200639905       -6.0390631212
 H        -3.7002799114        6.1028355656       -6.6197945562
 H        -3.5935465488        6.3090838613       -4.9559029077
 H        -9.5694779974       10.8164471104       -1.0655246802
 H        -9.7825079982        9.2778922521       -1.8630583659
 H        -8.6075168061       10.3409034561       -2.6780668042
 H        -7.4262341088       11.3801441223        0.1029800494
 H        -6.1093394402       10.6305905105       -0.8360619046
 H        -6.4416164205       10.0892583214        0.8387531090
 Na       -9.1729986464        5.9056613309       -0.8703684691
