117

 C        -7.9819191232        9.0941837537        1.7867810291
 C        -8.4716508854        8.6932969530        0.4640742942
 O        -9.2755486095        7.8173862651        0.1291912235
 C        -7.6502411957        9.4262842298       -0.7662853026
 C        -6.7419187395        8.2429475526       -1.3660589672
 O        -6.9041441469        7.0831125563       -1.2481869966
 C        -5.4471903272        8.6692037198       -2.2761724174
 C        -5.0065384312        7.6520455898       -3.3118030755
 C        -5.8383687496        7.4815819758       -4.5491073742
 O        -6.9167440038        7.9397836742       -4.7720239415
 C        -5.4412174798        6.2673835329       -5.6108949954
 C        -5.8614530431        5.0936823017       -4.7161846988
 O        -5.1883153873        4.7067861331       -3.7631954598
 C        -7.0492854055        4.2577626622       -5.3272727284
 C        -7.4422839460        3.0740759308       -4.4513808905
 C        -8.0093055501        3.5505275981       -3.0794281373
 O        -8.4698647928        4.6646925591       -2.9385817702
 C        -7.7592776608        2.6773818438       -1.7782509812
 C        -8.8910685997        2.6708572087       -0.8410717649
 O        -9.1013410645        3.6070535445       -0.1256722788
 C       -10.0523255884        1.5640100054       -0.8726567142
 C       -11.3324108325        2.2171733655       -0.4233973999
 C       -11.8297572823        3.4673787083       -1.2218451202
 O       -11.1851142263        4.4273870653       -1.4612275038
 C       -13.3938657021        3.3449330161       -1.5979372875
 C       -14.0220078505        2.6204186462       -0.5004508893
 O       -13.8272946564        2.9112647964        0.6407413994
 C       -14.7431050137        1.1665545329       -0.7830503712
 C       -15.0555089177        0.2711722408        0.4190423320
 C       -13.9147110290       -0.6835830390        0.7199161715
 O       -12.8206427848       -0.6683118133        0.1889388571
 C       -14.1680711395       -1.7800588779        1.7734498758
 C       -14.0991295935       -1.1824913463        3.1462038234
 O       -15.0637738662       -0.6486865264        3.6124152967
 C       -12.7659432093       -1.1879687098        3.9305933794
 C       -12.8467765390       -0.6436368598        5.3667864088
 C       -11.4895442401        0.1160601762        5.6425428761
 O       -10.7655239048        0.3615414217        4.6812576485
 C       -11.0741283902        0.7108506348        7.0068748774
 C       -11.7349212713        2.1449221930        7.4081705151
 O       -12.4504772278        2.1573005771        8.3789802818
 C       -11.2939007425        3.3734349897        6.6743331468
 C       -11.5026076451       -0.3411050852        8.0067982240
 C        -9.5586596086        0.8305187438        7.0082955332
 C       -15.6876347381       -2.1896548926        1.5431851696
 C       -13.2179287150       -2.9578878603        1.5059012952
 C       -13.7940278579        4.8510570381       -1.6646692254
 C       -13.4771269568        2.5901551028       -3.0237424666
 C        -7.4437953797        1.2032159540       -2.2238172621
 C        -6.5279399251        3.3403611791       -1.1246071075
 C        -6.0606253242        6.4356555074       -6.9514696884
 C        -3.9312891562        6.3806728435       -5.7174935424
 C        -8.4826638350        9.8802413371       -2.0186578636
 C        -6.8085101440       10.5642656167       -0.3345236237
 H        -6.9645573723        9.2800154565        1.8146860033
 H        -8.3057357657        8.2837543901        2.5685017159
 H        -8.4082409590       10.0605778155        2.1770395107
 H        -4.5879410388        8.7226857285       -1.6052406685
 H        -5.6984121446        9.5740854463       -2.7221027441
 H        -4.8494494218        6.5335594522       -2.9667995722
 H        -4.0804581737        8.0003239904       -3.6522891538
 H        -6.7214027300        3.8148580571       -6.2962000189
 H        -7.9305031367        4.7762491960       -5.5286717896
 H        -6.6326949650        2.3618299807       -4.4994479523
 H        -8.2973669800        2.6280421674       -5.0134613406
 H        -9.7225626370        0.6698108613       -0.3128645419
 H       -10.1055327290        1.2899138473       -1.9338836259
 H       -11.4766771505        2.2274888660        0.5952613000
 H       -12.0366031429        1.4260518141       -0.8652145997
 H       -14.0699370482        0.5494697527       -1.2955607826
 H       -15.6182440814        1.2592662188       -1.2481883441
 H       -16.1651413808       -0.1549379954        0.3208600909
 H       -15.1455076061        0.8752118906        1.4129912467
 H       -12.1665503693       -0.5017991117        3.3501211818
 H       -12.3437748130       -2.1797682793        4.0282527541
 H       -13.1931095395       -1.4402896986        6.1241062311
 H       -13.6716701962        0.0035768371        5.2932100574
 H       -12.2514978644        3.9261758930        6.5583564732
 H       -10.9837790614        3.3174367732        5.7196750200
 H       -10.6011730003        4.0398967638        7.2246303459
 H       -12.3627258064       -0.8808809812        7.6759480298
 H       -11.5859595883        0.0923924316        8.9535749790
 H       -10.5677948747       -1.0084752098        8.1313500194
 H        -9.2905342568        1.4695180930        6.2136047329
 H        -9.3150504875       -0.2121073216        6.9044841320
 H        -9.1896868341        1.2944726764        7.9691868666
 H       -15.9626524629       -2.3629635498        0.4507021157
 H       -16.2822200206       -1.3567919031        1.8383124232
 H       -15.7917974805       -3.1149623776        2.1109143844
 H       -12.2080706575       -2.5253250639        1.7782774612
 H       -13.2035900320       -3.3131919759        0.5767829744
 H       -13.4657977676       -3.7394589340        2.2720454687
 H       -13.9604817932        5.2562756858       -0.7266722190
 H       -14.7297023108        4.9157122698       -2.1558016621
 H       -13.1674706082        5.6217268859       -2.1702823863
 H       -12.9381583454        3.0451704242       -3.7611488373
 H       -14.4137472973        2.5094045167       -3.4934294408
 H       -12.9802285516        1.6060791167       -2.9274330905
 H        -7.5197542920        0.5369266327       -1.2981420991
 H        -6.4527722619        0.9613836030       -2.4828980863
 H        -7.9636052703        0.9360773367       -3.0488413684
 H        -5.8816429069        3.7013784279       -1.8251013153
 H        -6.1460147495        2.5293962001       -0.5170926295
 H        -6.6428724653        4.2264892674       -0.5206654612
 H        -5.5349460135        7.0709804408       -7.6236403433
 H        -7.0358941915        6.9398694323       -6.7605584912
 H        -6.3784984629        5.5256405859       -7.4754695232
 H        -3.5765198581        7.2283628426       -6.1538936603
 H        -3.5064687461        5.6351208838       -6.3312988230
 H        -3.4733097534        6.2039340971       -4.8847867959
 H        -9.0182757101       10.7651236180       -1.7553689175
 H        -9.1585140032        9.0282545765       -2.2247177118
 H        -7.9181489244       10.0637635562       -2.9271840338
 H        -7.0774212967       10.8761757855        0.6818038245
 H        -6.7117562995       11.3622737904       -1.0222325137
 H        -5.7789006384       10.1664661079       -0.0421824269
 Na       -9.1087462466        5.6269781595       -0.8183806185
