117

 C        -8.1595531807        9.2710089735        1.7258633530
 C        -8.2420583684        8.6124104514        0.3697248865
 O        -9.0331274521        7.6412397463        0.3012312576
 C        -7.5159410373        9.1944613583       -0.8889483225
 C        -6.4904636844        8.0867484896       -1.5173828942
 O        -6.4952496032        6.9303714137       -1.1894918843
 C        -5.3637608574        8.7383421560       -2.5311309308
 C        -4.7232695008        7.6811289624       -3.3887090118
 C        -5.6873463730        7.2125878589       -4.4568878526
 O        -6.8801856898        7.5830348302       -4.4546227731
 C        -5.3286358864        6.0884267281       -5.5131830852
 C        -5.9541562060        4.7833822358       -4.7742423472
 O        -5.6561045813        4.5215218272       -3.6777165616
 C        -7.1735255451        4.0327333013       -5.4619723617
 C        -7.5054139192        2.9173261328       -4.4545462333
 C        -7.9001199753        3.4658791535       -3.1067648963
 O        -8.3672144785        4.5710949588       -2.9527855001
 C        -7.5932545371        2.5995288550       -1.7565748390
 C        -8.9443224263        2.6496264390       -0.9410228092
 O        -9.0518454385        3.4983138546       -0.1071352641
 C       -10.0549463178        1.4552202720       -1.2985132713
 C       -11.5635350264        1.8515926341       -0.9958717000
 C       -11.9915962745        3.1751120537       -1.5044972672
 O       -11.2024352289        3.9419646651       -1.9736705794
 C       -13.5855200968        3.5039926238       -1.5430953667
 C       -14.2842813570        2.6689439541       -0.4633185380
 O       -14.3254334498        3.0883839039        0.6472574540
 C       -14.9762020607        1.2338339077       -0.8337473440
 C       -15.2643789222        0.2540815402        0.4167532803
 C       -14.0034434586       -0.5316624207        0.7862393637
 O       -12.8785650099       -0.3923956888        0.3316433084
 C       -14.1615179380       -1.6943905094        1.8112949013
 C       -14.0405256737       -0.8675940096        3.2485175019
 O       -14.8748846372       -0.0026420861        3.3149340053
 C       -12.9488470266       -1.2363746807        4.2795288279
 C       -12.8533899109       -0.1112249528        5.4593807736
 C       -11.3752595970        0.3675509107        5.8205658508
 O       -10.4592454398        0.2442714122        5.0318338135
 C       -11.0980161880        0.9280676321        7.2483351697
 C       -11.9188278577        2.2985585279        7.2088319540
 O       -12.9370758103        2.3856322993        7.8875821875
 C       -11.2941939194        3.5651267939        6.5559829514
 C       -11.5996220375        0.0443410543        8.3936263375
 C        -9.5217205114        1.1968938480        7.3279019776
 C       -15.5584698258       -2.3511507396        1.7293061040
 C       -12.9199341289       -2.6906756108        1.7187461911
 C       -14.0469078898        5.0046810596       -1.3457510463
 C       -13.9472799020        2.9679781771       -2.9623269813
 C        -7.0909969298        1.1148942460       -2.0570173429
 C        -6.4702365056        3.2415129874       -0.8065561178
 C        -5.8217997874        6.3906523122       -6.9776541012
 C        -3.8905006579        5.8674631836       -5.4527262784
 C        -8.5909680906        9.3463966437       -1.9339075299
 C        -6.6528714257       10.5223055532       -0.4904675471
 H        -7.2095322209        9.3982903726        1.9541650340
 H        -8.6982528245        8.9686294644        2.6248537646
 H        -8.3617713608       10.2897440396        1.5246795957
 H        -4.6703097130        9.0525908110       -1.7365943092
 H        -5.8482356814        9.5934999283       -3.0655627203
 H        -4.4477471855        6.7724537225       -2.7994709930
 H        -3.8906942699        8.0431267765       -3.9819332669
 H        -6.8668510512        3.4413286225       -6.3279606996
 H        -8.0445939060        4.6289282948       -5.7532852697
 H        -6.6980343248        2.2505949759       -4.4363918678
 H        -8.2278876190        2.3547237304       -5.0608423758
 H        -9.6998101383        0.5677963369       -0.6769009558
 H        -9.8117962705        1.3851575783       -2.3416616504
 H       -11.7376946764        1.9134400415        0.0847833643
 H       -12.2891860437        0.9898698145       -1.2983000688
 H       -14.2991616381        0.6541814885       -1.5911859502
 H       -15.9054129648        1.5888666485       -1.2741048228
 H       -16.1242893889       -0.4632762274        0.2362901400
 H       -15.6567232530        0.8324963152        1.2003891876
 H       -11.9001895738       -1.3667204043        3.8797206950
 H       -13.2686266484       -2.2294164909        4.7397825638
 H       -13.3242752255       -0.5235384086        6.3843365777
 H       -13.4104463291        0.7832959196        5.1090326607
 H       -12.0314070660        4.3195304698        6.2708270245
 H       -10.8968001063        3.2487850230        5.6424456787
 H       -10.4287612243        4.0487570453        7.0963367871
 H       -12.5162433126        0.5065084614        8.7599539323
 H       -10.8423197723       -0.1651996041        9.0315080527
 H       -12.0034512223       -0.9488106638        7.9861357636
 H        -9.3500029897        1.7447770520        6.4133361989
 H        -8.9823258452        0.2595013137        7.3576162563
 H        -9.4311103954        1.9297408957        8.1590188800
 H       -15.8553241522       -2.4749849033        0.6992273773
 H       -16.3776376707       -1.7470632351        2.1464567452
 H       -15.4445424339       -3.2803143982        2.2723413708
 H       -12.0317947167       -2.1370407481        1.4889946264
 H       -13.0180981903       -3.2643862408        0.9136231830
 H       -12.7663029827       -3.2194806664        2.7058351287
 H       -15.0187623308        5.1320350840       -0.8518549891
 H       -13.9500461334        5.6027365722       -2.2376016763
 H       -13.3594082756        5.6154115861       -0.5862138246
 H       -13.5991471716        3.5879630891       -3.7674583318
 H       -15.0298753566        2.8473021375       -3.2236145403
 H       -13.4968712921        1.9275182876       -3.1445461415
 H        -7.1201321392        0.4619697856       -1.0273496149
 H        -6.0819644549        1.0803229904       -2.6252332930
 H        -7.7319241294        0.6392800035       -2.7969036297
 H        -5.5539284607        2.9789111751       -1.2840867640
 H        -6.5562913989        2.6165725778        0.1622165483
 H        -6.3298681177        4.2884964645       -0.5137004713
 H        -5.5068507034        7.3514577312       -7.3157340023
 H        -6.8826210211        6.2343697215       -7.2074102516
 H        -5.2224585951        5.8400298350       -7.7113990705
 H        -3.2323276814        6.7735267412       -5.6007899355
 H        -3.3592564916        5.1181747995       -6.0781423103
 H        -3.6787305500        5.5572540529       -4.4584443031
 H        -9.1947501137       10.1923107199       -1.8098886099
 H        -9.1984186622        8.4464824766       -1.8814704524
 H        -8.1276998244        9.4417792723       -2.9659565814
 H        -7.3225254465       11.3508174825       -0.2830275170
 H        -5.9542318423       10.8645180729       -1.1643722185
 H        -6.1136153170       10.3456534678        0.4868713463
 Na       -8.8327562134        5.8541242215       -1.2738528599
