117

 C        -8.2151354246        9.4620677583        1.2908147952
 C        -8.0061958497        8.4177043014        0.2770040929
 O        -8.0578192729        7.2590210494        0.6261827924
 C        -7.5811600913        8.7288993684       -1.2228047121
 C        -6.5266558014        7.6952089685       -1.7064152148
 O        -6.7294859027        6.5108180232       -1.7978608666
 C        -5.0965796641        8.1313455482       -2.2383623497
 C        -4.4355825217        7.1155679842       -3.1592669492
 C        -5.2925645365        6.7235218163       -4.3356565823
 O        -6.2519371143        7.4075099121       -4.5724142860
 C        -4.8194291656        5.6540544483       -5.3554352653
 C        -5.3843622400        4.2178068545       -4.8451369546
 O        -4.9138486459        3.7345736493       -3.8562353355
 C        -6.7147919347        3.6214389842       -5.5098003800
 C        -7.3772420730        2.6283923675       -4.4504181548
 C        -7.9512346378        3.1993144918       -3.1709440935
 O        -8.1921165111        4.3646760843       -3.0453153496
 C        -7.8401703344        2.3991003523       -1.7934287190
 C        -9.3015726533        2.6259518125       -1.1658936229
 O        -9.4487910505        3.4899852945       -0.3507977376
 C       -10.5774710808        1.5337071121       -1.4363312657
 C       -11.9318093928        2.0782290754       -0.9859217434
 C       -12.4579147687        3.0563013191       -1.9429500531
 O       -11.7776202811        3.2774104679       -2.9060061801
 C       -13.8562190034        3.6255350623       -1.5362298970
 C       -14.4149997948        2.8277142840       -0.3152762205
 O       -14.0901992489        2.9983499676        0.7764469521
 C       -15.2720252555        1.5145021448       -0.7284261265
 C       -15.2269095684        0.4125243139        0.3015846961
 C       -13.9114616661       -0.4702385916        0.6351677153
 O       -13.1120877162       -0.7453647061       -0.2305105731
 C       -14.0177379102       -1.2850431064        2.0584187610
 C       -13.7423524326       -0.1818714064        3.1950448511
 O       -14.2925637658        0.8619637010        3.0688718855
 C       -12.6891488596       -0.4558445369        4.4321023016
 C       -12.7985237347        0.6059245503        5.5154446027
 C       -11.5316199866        0.6804984121        6.4583429127
 O       -10.5869379893        0.0125608073        6.1706397725
 C       -11.4111540319        1.7490118805        7.6090790982
 C       -12.1918750868        3.0418931827        7.0740561785
 O       -13.3651854938        3.1668014547        7.3419462711
 C       -11.3061193134        4.0954705051        6.4076953022
 C       -12.2668780727        1.1441730288        8.8676303558
 C        -9.8596414273        2.0621411937        7.9554593097
 C       -15.3930383589       -1.8223820528        2.1497551995
 C       -12.8989087757       -2.3610800487        2.1075179128
 C       -13.6925459111        5.0414878804       -1.1215298713
 C       -15.0315162091        3.6060980498       -2.6247020509
 C        -7.6383355873        0.8480163583       -1.8513569757
 C        -6.7985488721        2.9328069356       -0.9012102544
 C        -5.5179999448        6.1041032074       -6.6970627799
 C        -3.2293215425        5.6082416195       -5.6100927861
 C        -8.9181561012        8.3429439115       -1.9940723752
 C        -6.9905268433       10.2203762058       -1.5276634158
 H        -7.3085426241       10.0498064659        1.3383835159
 H        -8.3613133661        9.1768161802        2.3909353978
 H        -9.0811871497       10.2045118639        1.0704790228
 H        -4.4563984871        8.2662057687       -1.3978949387
 H        -5.2386738772        9.1395979447       -2.6203797324
 H        -4.1647737389        6.1745203245       -2.7396659458
 H        -3.5233780384        7.5716900649       -3.6149461569
 H        -6.6297331000        3.1178775842       -6.4602672649
 H        -7.4743642876        4.4120319574       -5.7144757476
 H        -6.7917927458        1.7233101427       -4.3716196285
 H        -8.2008261150        2.3229994694       -5.1215812961
 H       -10.3099492939        0.7055410948       -0.7419229221
 H       -10.5338166850        1.2178321265       -2.4515089454
 H       -11.8329647978        2.6037987611       -0.0528669388
 H       -12.6877299069        1.3545851368       -0.7439239218
 H       -14.9712399429        1.2469960365       -1.7833780689
 H       -16.2887812691        1.7095302960       -0.9156191478
 H       -15.9488616001       -0.4370327792        0.0140263827
 H       -15.7269192530        0.7613096988        1.1901240452
 H       -11.7685526422       -0.5883541902        3.8928450475
 H       -12.8050723083       -1.4229185303        4.8936785430
 H       -13.6943174484        0.3632640347        6.0284558848
 H       -12.9755270690        1.5959550760        5.0087669348
 H       -11.9198998389        4.9816133801        6.2184722257
 H       -10.7160000449        3.7650727506        5.6271041946
 H       -10.5335075908        4.5322946864        7.0774931671
 H       -11.7766680754        1.6418311157        9.7189483492
 H       -12.1506878660        0.1294533886        9.0405687016
 H       -13.4002177374        1.3823733649        8.8029890186
 H        -9.4935890265        2.3353607631        6.9809770116
 H        -9.3519659980        1.1760200818        8.3463444773
 H        -9.9374687903        2.8346097969        8.7592830425
 H       -15.7671179058       -2.1549832787        1.1581292631
 H       -16.0950125495       -1.1054895103        2.6486142821
 H       -15.4593194097       -2.8162682184        2.6182276883
 H       -11.8714215082       -1.7927957677        2.3761283614
 H       -12.7795840681       -2.7673901025        1.1420518067
 H       -13.0739527855       -3.2834666688        2.7330033279
 H       -14.3947129422        5.4270646770       -0.4756967966
 H       -13.6614632332        5.7101711447       -1.9340747546
 H       -12.6826275162        5.1341633691       -0.6440120920
 H       -14.8117057977        4.1686694993       -3.4969850856
 H       -15.9171159617        4.0371769282       -2.1332511477
 H       -15.4347354826        2.6505018174       -3.0032312554
 H        -7.7424486262        0.3722592662       -0.8805741688
 H        -6.6816527356        0.6710763635       -2.2363360697
 H        -8.4483157097        0.6402994545       -2.5157812940
 H        -5.8739183227        2.5674363735       -1.1339186703
 H        -6.9635717560        2.4313874094        0.0653198979
 H        -6.7252458964        4.0047902672       -0.6138037375
 H        -5.3098153973        7.1208143476       -6.7944265496
 H        -6.5857333784        6.1432666921       -6.6873858234
 H        -5.1008955005        5.5695644904       -7.5291868865
 H        -2.7208036310        6.5633529357       -5.7008956473
 H        -2.8903796026        4.9128747557       -6.4375697288
 H        -2.6719623509        5.1965124507       -4.6610733305
 H        -9.6824300215        8.9563859213       -1.5094486718
 H        -9.1990474507        7.2595983078       -1.7330884071
 H        -8.7488231968        8.5029545118       -3.0393666103
 H        -7.7658967909       10.8850155657       -1.1071957039
 H        -6.8941343054       10.5372742173       -2.5271469771
 H        -5.9661641426       10.5257560256       -1.1134415750
 Na       -8.3688397779        5.4497162980       -0.9575981376
