117

 C        -8.0655107733        9.5033295351        1.2391501400
 C        -7.7968563999        8.4234618890        0.2520062369
 O        -8.0452671652        7.2443939379        0.5681545511
 C        -7.5649530586        8.6723009813       -1.3347701831
 C        -6.4612026386        7.5881325581       -1.7938389319
 O        -6.6527930325        6.4302999024       -1.6927104946
 C        -5.0130206191        8.0384736620       -2.1654200002
 C        -4.3302286652        6.9847420815       -3.0566209764
 C        -5.2163367827        6.7143498100       -4.5071464860
 O        -6.2975378300        7.2313165565       -4.6881247700
 C        -4.7406656618        5.6753379461       -5.5034983751
 C        -5.3806835009        4.3182202633       -4.7423580483
 O        -4.7421161947        3.8299669263       -3.9298279987
 C        -6.6745970600        3.8623290398       -5.3149620564
 C        -7.2156415443        2.6144097652       -4.4349191362
 C        -7.7933930435        3.1813784475       -3.0834739686
 O        -8.2682339795        4.3381036068       -3.0345616123
 C        -8.0206603138        2.2041553952       -1.7850534580
 C        -9.4644025154        2.4891916433       -1.0736199286
 O        -9.6699897048        3.5273230585       -0.4214452785
 C       -10.5283099106        1.5506218037       -1.2942137234
 C       -11.7668528149        2.0997473754       -0.8316609565
 C       -12.5590194797        2.9134882648       -2.1151295725
 O       -11.9065764947        3.2863507873       -3.0561285765
 C       -13.8659689400        3.6580929220       -1.6077605372
 C       -14.3714541994        2.6169071042       -0.3789026872
 O       -14.0708589281        3.0716476788        0.7079185497
 C       -15.2474614296        1.4249772187       -0.5738604992
 C       -15.2930719954        0.3370838181        0.4131305110
 C       -14.1199493357       -0.5282040399        0.5822328460
 O       -13.1198008303       -0.6124937020       -0.1607058022
 C       -14.0304637977       -1.2790846460        1.9334231797
 C       -13.5893130281       -0.1473126698        3.1099815561
 O       -14.1848316629        0.9072771493        2.9774715374
 C       -12.6694740877       -0.3343409897        4.3167043477
 C       -12.8247647153        0.6370884073        5.5345839207
 C       -11.5637691260        0.7429004340        6.4463606867
 O       -10.5818611269        0.0181425691        6.4349302003
 C       -11.5494075920        1.9357392761        7.6592963713
 C       -12.2016313629        3.1982116395        7.2007620366
 O       -13.3452632050        3.4701738102        7.3980778022
 C       -11.3016503417        4.2303809877        6.5213918671
 C       -12.2244249745        1.3609711345        8.9130214243
 C       -10.0983412126        2.0721119932        7.9252875376
 C       -15.4909868589       -1.8709250734        2.3104285068
 C       -12.8347175382       -2.3741609164        2.0194799556
 C       -13.5093377896        5.0853786895       -1.1275501401
 C       -15.1217933074        3.8146441004       -2.5992528590
 C        -7.8154054529        0.6800935753       -1.9663149280
 C        -6.7619671778        2.7301288045       -0.8959483976
 C        -5.3501509991        6.0011082478       -6.8822253479
 C        -3.3033364754        5.5012311344       -5.5512932350
 C        -8.8136617806        8.3076433498       -2.1858549906
 C        -7.2214201852       10.0744747642       -1.5844252698
 H        -7.1650257881       10.1431355594        1.6501659453
 H        -8.3797282127        9.1088150820        2.1473097933
 H        -8.9116673815       10.1499693506        0.9842866390
 H        -4.5353271862        8.2590342534       -1.1995863901
 H        -5.1403752384        9.0191095716       -2.5584893244
 H        -4.3480261081        5.9023337185       -2.6408545118
 H        -3.3798020317        7.2326359193       -3.3194268326
 H        -6.3514085945        3.3615079949       -6.3414650233
 H        -7.3969577583        4.5995799427       -5.6589374274
 H        -6.3550150176        1.9058010670       -4.3807055325
 H        -7.8975489429        2.1010464203       -5.1716799093
 H       -10.3402506862        0.6015864246       -0.7374111166
 H       -10.4932834508        1.3781590183       -2.3282078843
 H       -11.7512123739        2.6757657194        0.0338028969
 H       -12.4996812614        1.2272731449       -0.6045154727
 H       -15.1549967389        1.2296635429       -1.7127748276
 H       -16.2991077950        1.8900692167       -0.6507203881
 H       -16.1211014802       -0.3347364630        0.3148402302
 H       -15.5050170846        0.7730937115        1.3174190715
 H       -11.7569217995       -0.3673468410        3.7951752470
 H       -12.7250554709       -1.3620890657        4.6597185245
 H       -13.7961589394        0.4439272992        6.0844174756
 H       -12.9494797912        1.5928781230        5.1037693503
 H       -12.0053079414        4.8342580600        5.8719415403
 H       -10.5946185102        3.6277142772        5.9265651342
 H       -10.6543242623        5.0030800346        6.9514581068
 H       -11.5799000695        1.5021461401        9.7495363102
 H       -12.3702677049        0.2160303462        8.8797711131
 H       -13.2494740916        1.7856362068        8.9908981902
 H        -9.6702854266        2.3141781933        7.0048794956
 H        -9.7437955824        1.1461335701        8.3278827613
 H       -10.0999784064        2.8241772732        8.7382248520
 H       -15.9093193137       -2.3079473755        1.3375165251
 H       -16.1308498276       -1.1328177540        2.7255340568
 H       -15.5179682883       -2.8302411658        2.8216203804
 H       -11.8134725311       -1.9763854005        2.1136644189
 H       -12.9439985217       -3.0736955038        1.0908418855
 H       -13.0553900810       -3.1145179676        2.7265577712
 H       -14.2755519995        5.5162237883       -0.4499186034
 H       -13.5067091987        5.8796932271       -1.9750319982
 H       -12.5903431295        5.1153985963       -0.6610197284
 H       -14.9468501828        4.1509061675       -3.5764600578
 H       -15.8547268515        4.4709611506       -2.1524712407
 H       -15.6785465403        2.8549487805       -2.6835234165
 H        -7.9779817187        0.3151253041       -1.0032362709
 H        -6.6927960180        0.5424036539       -2.2676635853
 H        -8.6075319125        0.3226363181       -2.8161674405
 H        -5.7787367414        2.3544899050       -1.3813054535
 H        -6.6293342964        2.3659263740        0.1216863404
 H        -6.7288191344        3.8249890035       -0.8172570752
 H        -4.9287123680        6.8856320741       -7.2766244015
 H        -6.3812731265        6.3580834841       -6.7330886667
 H        -5.2422531766        5.1538818332       -7.5436402405
 H        -2.7332426499        6.5933452278       -5.4800844451
 H        -2.7638861087        4.9025353676       -6.3470063332
 H        -2.8849060619        5.1072990437       -4.5117982005
 H        -9.7287266544        8.7893435008       -1.6008782536
 H        -8.9500457630        7.2201953208       -2.0443491814
 H        -8.6117628730        8.5403287255       -3.2200695585
 H        -8.0661179305       10.6909148216       -1.3599771227
 H        -6.8637095460       10.3697523404       -2.6543651535
 H        -6.3832856657       10.4569136455       -1.0135316324
 Na       -8.5302038968        5.4553110443       -0.8132306548
