117

 C        -7.8212113327        9.5423990231        0.9861615789
 C        -7.8682080332        8.2892090533        0.1357179484
 O        -8.0476601483        7.1562068405        0.5967673449
 C        -7.5182965282        8.5825971817       -1.3888464915
 C        -6.2969366297        7.5316858134       -1.7320362594
 O        -6.5760432514        6.3210297501       -1.5978246310
 C        -4.9268524343        7.9334369007       -2.3123371429
 C        -4.4745139962        6.8870180119       -3.2102339714
 C        -5.2246042606        6.7838241043       -4.4693242111
 O        -6.3373732283        7.2974226186       -4.5348703495
 C        -4.5999599185        5.6881988123       -5.4900524322
 C        -5.2548592848        4.4076127015       -4.8916058017
 O        -4.6114649026        3.9353953596       -3.9136465591
 C        -6.6853546059        3.8846442579       -5.1010027096
 C        -7.1627519964        2.6097317910       -4.2115958903
 C        -7.8947695029        3.1106965142       -3.0472768997
 O        -8.2817893332        4.2725666237       -2.9553343722
 C        -8.0500788436        2.1156979678       -1.8219516363
 C        -9.3966413463        2.4805018603       -1.0911713377
 O        -9.6239158646        3.5671504041       -0.5794240584
 C       -10.4700577551        1.4523319615       -1.2697378729
 C       -11.8529636645        2.0923409886       -1.0372098832
 C       -12.5659233629        2.9992864992       -2.0664459807
 O       -12.1779973776        3.1558719840       -3.1905133288
 C       -13.9885049709        3.6031253787       -1.5288760724
 C       -14.4845859969        2.7857338504       -0.3416801227
 O       -14.0688517053        3.0767176309        0.7938157723
 C       -15.3074767089        1.4283707617       -0.6742917776
 C       -15.3910445843        0.3622739450        0.5654800027
 C       -14.0980709144       -0.5487364878        0.7023762446
 O       -13.2205023722       -0.4642071258       -0.1097924304
 C       -13.9589362644       -1.2668796985        2.0546112431
 C       -13.6444610230       -0.0562099770        3.1391491949
 O       -14.0930805949        1.0530889083        2.9878749605
 C       -12.5447450183       -0.3291978803        4.2230227224
 C       -12.7829024301        0.6704577170        5.4414576751
 C       -11.6701654433        0.8291999053        6.4490108169
 O       -10.7862365929       -0.0042347964        6.5183084554
 C       -11.6224660483        1.9603792666        7.6945367773
 C       -12.2698942950        3.3948163246        7.1835892359
 O       -13.4092265621        3.7787530809        7.4985819501
 C       -11.3337702899        4.4366895850        6.4446055627
 C       -12.3626455857        1.4561461815        8.9447300288
 C       -10.0402232031        2.1079986790        8.0022943734
 C       -15.2712606941       -1.9206572412        2.5598704452
 C       -12.9345515959       -2.3874256056        1.8770358418
 C       -13.3710012839        4.9005058551       -1.1072454799
 C       -14.9994498215        3.8936201827       -2.6587276130
 C        -7.9975795159        0.6342593875       -2.2235488852
 C        -6.7431371387        2.5363004144       -0.8581546062
 C        -5.1530396162        5.7799902162       -7.0213547011
 C        -3.1195358781        5.4161409095       -5.4943012966
 C        -8.7799943171        8.2611510532       -2.3321975823
 C        -7.3410277194       10.0624484505       -1.6695250726
 H        -6.8770303928        9.9044712997        1.2705482395
 H        -8.1249024433        9.2109144944        1.9781917331
 H        -8.5016291794       10.2729341010        0.8207623427
 H        -4.2724889494        8.0062554586       -1.4017117990
 H        -5.0309579193        8.9792547300       -2.6370819256
 H        -4.5639792625        5.8643058387       -2.7730640465
 H        -3.4365782026        7.0172049351       -3.5662767110
 H        -6.9981760668        3.6464930937       -6.1549357420
 H        -7.2860291138        4.7973465506       -4.8973082329
 H        -6.1897822965        2.2030588329       -3.8060944177
 H        -7.5045667191        1.8512544884       -4.9217108941
 H       -10.4251801614        0.6701407354       -0.5246458224
 H       -10.2941933915        1.0357542622       -2.3147422282
 H       -11.8477525946        2.6718806733       -0.0640575685
 H       -12.6845928734        1.3693530608       -0.8581250283
 H       -14.8501976352        1.0253143447       -1.5799460358
 H       -16.3054168393        1.7653904828       -1.1971983744
 H       -16.1922751826       -0.2955864885        0.5627887139
 H       -15.5751173472        0.9668600481        1.4679461817
 H       -11.6121359316       -0.3850509484        3.6322589940
 H       -12.6337846636       -1.3632758265        4.5560482642
 H       -13.6921686227        0.3187967907        6.0247680539
 H       -13.1490346708        1.5812440309        4.9901774103
 H       -11.7499872015        5.0956381918        5.6798791272
 H       -10.3318251853        3.8744726172        6.1978708484
 H       -10.9468513954        5.1641755174        7.1724131927
 H       -11.7183347248        1.5483595468        9.8469311467
 H       -12.6898375800        0.3599521057        8.9787845296
 H       -13.2567394903        1.9734827347        8.9062470568
 H        -9.4801896495        2.3418459845        7.1051357260
 H        -9.7318534923        1.2235942404        8.5037519574
 H       -10.1075600426        2.8700728626        8.6974339554
 H       -15.6532728572       -2.6410313645        1.8695944244
 H       -15.9945774659       -1.1191440270        2.7110061844
 H       -15.1897320737       -2.5880389030        3.3927154275
 H       -12.0530741121       -2.1302826116        1.4795095917
 H       -13.5018931322       -3.1151764782        1.2362238102
 H       -12.8044222833       -3.0638316192        2.7033174260
 H       -14.0979698530        5.5747730440       -0.5200534324
 H       -13.1286966890        5.6055861778       -1.9326474541
 H       -12.4670469748        4.6971850029       -0.4592394127
 H       -14.3899044320        4.2271294002       -3.5507591438
 H       -15.6307475957        4.7413195014       -2.4140436255
 H       -15.6269518539        3.0997731298       -2.9726125882
 H        -8.2102472763        0.1318062015       -1.1722599596
 H        -6.8834482372        0.5299532804       -2.4680636990
 H        -8.6275428597        0.3816181376       -3.1157066107
 H        -5.7326078787        2.3252927135       -1.3799866930
 H        -6.5813914574        2.0185472072        0.1100673164
 H        -6.7715198544        3.6005874478       -0.6212444131
 H        -4.4113297146        6.3665869300       -7.6684735364
 H        -6.0281361228        6.4321102639       -7.0835657706
 H        -5.3165072475        4.7582516311       -7.3806564210
 H        -2.5733433890        6.3627797139       -5.6278992201
 H        -2.7814320883        4.7996815365       -6.3800523825
 H        -2.5916252761        5.0286344275       -4.6532961011
 H        -9.5759105935        8.7565074406       -1.8193632287
 H        -9.0001666995        7.2344781368       -2.4003892261
 H        -8.4807459279        8.6259694426       -3.3903885774
 H        -8.2209946282       10.7090235480       -1.5759121861
 H        -6.8504172297       10.1982737376       -2.6325540149
 H        -6.6077629300       10.5067805256       -1.0478927140
 Na       -8.6998734705        5.4011114516       -0.6950467311
