117

 C        -7.1015920167        9.3139896021        0.6878435652
 C        -7.8769473304        8.2646283555       -0.1706341205
 O        -8.8041800238        7.5872805274        0.1953893504
 C        -7.4751686190        8.2992478533       -1.6402693908
 C        -6.1928624472        7.3807148967       -1.8538118135
 O        -6.2653159490        6.2126093778       -1.4515792996
 C        -4.8088849431        7.9582292822       -2.3634520481
 C        -4.0551890006        6.9733939051       -3.3187421134
 C        -4.8410335106        6.7270761814       -4.6252054349
 O        -5.8170856297        7.3497310155       -4.8934433839
 C        -4.4063118903        5.4879466902       -5.5508062359
 C        -4.9081767978        4.2738885922       -4.7045011653
 O        -4.1648611652        3.5838143732       -3.8954718748
 C        -6.3007487824        3.9607437600       -4.9295977002
 C        -6.9676522710        2.7728816404       -4.1746508937
 C        -7.6353310694        3.1093597606       -2.9514069853
 O        -8.1074374580        4.1940858235       -2.7437409679
 C        -8.1017254912        1.8516214205       -1.8991577228
 C        -9.4816000749        2.1847202196       -1.3304527767
 O        -9.5817398763        3.0287724148       -0.4396921780
 C       -10.6881892576        1.2775415443       -1.6542878072
 C       -12.0334088353        1.6797411566       -0.9499644531
 C       -12.8729037719        2.4962202423       -2.0034150211
 O       -12.6487932955        2.3067574683       -3.1851637265
 C       -14.0093350780        3.4055199319       -1.4017001450
 C       -14.7139746314        2.7903408825       -0.2090675238
 O       -14.8441905307        3.3471774472        0.8776545743
 C       -15.4691206098        1.4676882082       -0.5351337948
 C       -15.5944970149        0.5818018249        0.7470608740
 C       -14.3272603862       -0.3249013074        0.8435869056
 O       -13.7281284000       -0.6892192880       -0.0938255075
 C       -13.8989184700       -0.7087913531        2.3910735519
 C       -13.5889903089        0.5105934890        3.2193697297
 O       -13.9558465143        1.6203097154        2.9227325492
 C       -12.6964518193        0.1297491737        4.4201172471
 C       -12.6961726930        1.2990275672        5.4373311558
 C       -11.7393574368        1.1110701550        6.5770904815
 O       -11.0161707924        0.1891973391        6.8477561395
 C       -11.8224944154        2.2349240371        7.7243556461
 C       -12.2588290392        3.6403818544        7.1405463718
 O       -13.3699685595        4.1583401337        7.4210124339
 C       -11.3439470451        4.3846466799        6.1304289774
 C       -12.9158209305        1.7441787521        8.8367444798
 C       -10.4974243620        2.3877620059        8.4862953053
 C       -15.1050406808       -1.4455609616        2.9671472435
 C       -12.8820179929       -1.8003620473        2.3035465700
 C       -13.1865919437        4.6877502370       -0.8849585477
 C       -14.9998086584        3.9543682056       -2.5970785337
 C        -8.1177466517        0.5425510965       -2.7085099315
 C        -7.1466799595        1.8233507385       -0.7363631402
 C        -4.8883709473        5.6304253101       -7.0738781259
 C        -2.9091977965        5.4172865726       -5.6068144670
 C        -8.6749296089        7.7950312042       -2.5480924295
 C        -7.1951568951        9.7689734778       -2.1485312054
 H        -6.1047544739        9.2364500402        0.4925305490
 H        -7.1870923312        9.2704597984        1.8200969203
 H        -7.4561338017       10.3334283723        0.5240056020
 H        -4.1676270971        8.0158897801       -1.4774944928
 H        -4.9870789204        9.0015400984       -2.6333021267
 H        -3.7318008380        6.0850841257       -2.8237335261
 H        -3.1047410994        7.5506020883       -3.6336134774
 H        -6.3269016991        3.8620155729       -6.0266485833
 H        -7.0440638118        4.7836496487       -4.6678508524
 H        -6.2261648981        1.9441607001       -4.2506009436
 H        -7.8877920118        2.4875115434       -4.7224175952
 H       -10.4826240531        0.2696314761       -1.5067819456
 H       -10.9810501031        1.4312070609       -2.7290000259
 H       -11.8504020537        2.5977732064       -0.2666150077
 H       -12.6669142134        0.9722969500       -0.3878332422
 H       -15.2769540167        0.9242393458       -1.5137195904
 H       -16.6058710701        1.8247525140       -0.6440085009
 H       -16.3857063663       -0.0213595503        0.6193620031
 H       -15.8046062074        1.2202671418        1.5586038772
 H       -11.6750024417       -0.0400411957        4.0941900901
 H       -12.9514581129       -0.7366283805        4.9745065119
 H       -13.7311297158        1.4702636780        5.7800331883
 H       -12.4617672838        2.2997785285        5.0706796458
 H       -11.8723025399        4.7111913125        5.2212822472
 H       -10.4634763424        3.7482501142        5.7966816112
 H       -10.8184555026        5.2345360973        6.6533895954
 H       -13.5398478381        2.5189253619        9.4653984584
 H       -12.3910833782        1.2231319470        9.6263442591
 H       -13.5199909664        0.9443289182        8.4233225855
 H        -9.7875052580        2.9221967924        7.7932819764
 H       -10.2091422311        1.3502862454        8.6326117694
 H       -10.6477426462        3.0404491894        9.2922989819
 H       -15.6759230744       -2.0107244465        2.2498790127
 H       -15.9573568860       -0.7471560807        3.2474580297
 H       -14.8795678575       -2.1356828706        3.8192581165
 H       -12.0296288312       -1.5346662836        1.6721935996
 H       -13.2968708035       -2.6069200987        1.8606601942
 H       -12.4581463603       -2.2638350370        3.2538223777
 H       -13.7930143481        5.5794424754       -0.6499430693
 H       -12.4571290980        4.9022574916       -1.6246193277
 H       -12.6144411761        4.4633704369        0.1464045171
 H       -14.3188800525        4.7394145301       -3.0092251027
 H       -15.8251980356        4.5363215085       -2.2618756804
 H       -15.2036385790        3.3106892294       -3.3900654130
 H        -8.4911953676       -0.2801817189       -1.9547254169
 H        -7.1211497891        0.3457595989       -3.1795607543
 H        -8.5605236822        0.7470494171       -3.6668785741
 H        -6.1053172476        1.8712278384       -0.9634269272
 H        -7.3563398755        0.9927102513       -0.0228119939
 H        -7.1498358415        2.8004946854       -0.2122180499
 H        -4.6356113894        6.6380923922       -7.4873199957
 H        -5.9230349806        5.5179303930       -7.1183246996
 H        -4.4680200994        4.8639685494       -7.6753301013
 H        -2.5475790941        6.4243905052       -5.9572237504
 H        -2.5204137107        4.6660500216       -6.3669863539
 H        -2.3683811975        5.1590900211       -4.5831473137
 H        -9.3125520406        8.6558692285       -2.3920023794
 H        -9.1710981724        6.8360490556       -2.1500475065
 H        -8.2809960322        7.7454622710       -3.6170621249
 H        -8.1504819998       10.4020869168       -2.1623815082
 H        -6.8907198928        9.7209782148       -3.1207136710
 H        -6.5406094602       10.3970865084       -1.5123329783
 Na       -8.4594453668        5.1330669553       -0.6697915034
