117

 C        -7.1292840348        9.1283906648        0.6541359461
 C        -7.8727432316        8.2868617630       -0.2722082510
 O        -8.7553658982        7.5835905502        0.0907368716
 C        -7.5035679073        8.3372693310       -1.8819358081
 C        -6.1975401406        7.4520413492       -1.9343883656
 O        -6.2908391479        6.3017103084       -1.4919275756
 C        -4.7435297441        8.0058874112       -2.2781177196
 C        -3.9591639403        6.9208076094       -3.2281916542
 C        -4.7457932881        6.6836317890       -4.6290756159
 O        -5.6649181118        7.4586340742       -4.8664943676
 C        -4.2977680115        5.5036263000       -5.5587119228
 C        -4.8671748234        4.1708763497       -4.8017459938
 O        -4.1154204264        3.6055296836       -4.0179667758
 C        -6.4003018692        3.9071003403       -5.0185451571
 C        -6.8636798366        2.5962057752       -4.2033234134
 C        -7.7380691865        2.9601554490       -3.0088267825
 O        -7.8965435300        4.1061257198       -2.6613089716
 C        -8.0870636331        1.8395303956       -1.9809949927
 C        -9.4461967868        2.2040251043       -1.2705897979
 O        -9.5433352264        3.1320002730       -0.4882792387
 C       -10.6759155502        1.3021443655       -1.6008873919
 C       -12.0759767142        1.6963272529       -0.9868770218
 C       -13.0740434861        2.4349689770       -1.9531607659
 O       -12.9223905029        2.2904583274       -3.1422471329
 C       -14.0159237137        3.3878719889       -1.3983236983
 C       -15.0317152437        2.9004222813       -0.1547197995
 O       -14.9708290836        3.4303036522        0.9125592774
 C       -15.6040262922        1.5149600044       -0.4176729147
 C       -15.6716962500        0.5629888775        0.7154065325
 C       -14.4176627087       -0.2963387038        0.8556128894
 O       -13.7796088417       -0.9007086989       -0.0355983017
 C       -14.0417835245       -0.7302341338        2.3071050212
 C       -13.5695771548        0.6579555185        3.2271959900
 O       -13.8630809490        1.8008650754        2.9198354930
 C       -12.7858787525        0.3706909519        4.5169898665
 C       -12.6250804857        1.6322014912        5.5331373206
 C       -11.7356303094        1.2521640029        6.7980836764
 O       -11.0254721334        0.2877522836        6.7302737206
 C       -11.8432308559        2.2669688559        7.9051816489
 C       -12.3281755847        3.6047168467        7.1409288064
 O       -13.3372052382        4.1821699017        7.3291454691
 C       -11.3439863888        4.2163981654        6.0642355537
 C       -12.9891684267        1.8861427083        8.8608386651
 C       -10.5860218178        2.5269256945        8.7060498077
 C       -15.3450952387       -1.3200910795        2.9155975625
 C       -12.7602163797       -1.7382768861        2.3454475277
 C       -13.0191279531        4.5349906904       -0.9350407276
 C       -14.9553656318        3.7552693341       -2.5403513061
 C        -8.1325643788        0.3388554891       -2.7416448706
 C        -7.0627478405        1.8381732259       -0.8407947613
 C        -4.7781873481        5.5967769997       -7.0123486486
 C        -2.7456019832        5.3232673320       -5.6818009634
 C        -8.6273130213        7.6264391574       -2.6977229857
 C        -7.2099004936        9.8024415576       -2.1919993079
 H        -6.0448393286        9.0889720212        0.5313963743
 H        -7.3516349205        8.8086415908        1.5804535539
 H        -7.4163846531       10.1617219420        0.6807465311
 H        -4.1859709237        8.1882369528       -1.3376025880
 H        -4.9249681839        9.0359389064       -2.6900911558
 H        -3.7308404021        5.9989740558       -2.7404884400
 H        -2.9410379919        7.4286723248       -3.4582522082
 H        -6.6296020778        3.9283354302       -6.0362828710
 H        -7.0570670520        4.7200868684       -4.5229419445
 H        -5.9309867927        2.0706292758       -4.0783898289
 H        -7.5158634154        1.9955816359       -4.8226979486
 H       -10.4700161039        0.2954031422       -1.2303227431
 H       -10.8855239383        1.2393104441       -2.7217603476
 H       -12.0512833001        2.1382968263        0.0750795098
 H       -12.6714159143        0.8027758777       -0.8429412939
 H       -15.0892019777        1.1181186019       -1.3033339872
 H       -16.6131068490        1.5145589485       -0.7194769332
 H       -16.5831417588       -0.1152006968        0.5939294774
 H       -15.8157338371        1.1644798893        1.5904070153
 H       -11.7601617238        0.1035229959        4.1809797853
 H       -13.0897421214       -0.4493633317        5.1560441593
 H       -13.5990051552        1.9397293087        5.7986451658
 H       -12.2040514335        2.6079465255        5.1477905340
 H       -11.8083641018        4.6782183397        5.1411693646
 H       -10.6193677226        3.5231709135        5.7146668267
 H       -10.6774266910        4.9336942915        6.6681601031
 H       -13.6022411294        2.7629676019        9.1323201536
 H       -12.5927070887        1.5637672110        9.7858229762
 H       -13.6258146451        0.9744437131        8.5497465107
 H        -9.9409394441        3.1025856832        8.0856439485
 H       -10.2105774905        1.5476448543        8.8322181914
 H       -10.7742229179        3.1850419622        9.5374521110
 H       -15.9416112460       -1.8084024519        2.1893519799
 H       -16.1287097424       -0.6169843458        3.2074091988
 H       -15.1803247647       -2.0287159723        3.7124198729
 H       -11.8006291725       -1.2519490092        2.1348010914
 H       -12.7289916223       -2.4433360047        1.4910893425
 H       -12.6514856128       -2.2960726257        3.2081200314
 H       -13.5763876825        5.3187317505       -0.3405914824
 H       -12.4180599604        4.9349908357       -1.8480347985
 H       -12.2994581636        4.1390351614       -0.1952159259
 H       -14.4922762832        4.3826739831       -3.2717250665
 H       -15.7295066078        4.3804267930       -2.1017965872
 H       -15.2678057525        2.8617938672       -3.0812509414
 H        -8.5025549123       -0.3159201027       -2.0702976890
 H        -7.1380082095        0.0742387012       -3.1967147468
 H        -8.5803742105        0.5382553121       -3.7753417738
 H        -6.1404820439        1.4661160025       -1.1668065322
 H        -7.4239085808        1.0900134537       -0.0871080282
 H        -6.6384225759        2.7787223320       -0.3849932677
 H        -4.5241543944        6.6134044297       -7.2368854867
 H        -5.8738235690        5.4739429950       -7.2142718212
 H        -4.1943450766        4.9616836824       -7.7211846705
 H        -2.2996040688        6.2775115537       -5.9203282927
 H        -2.4392417326        4.6067159856       -6.3158949004
 H        -2.4668200149        5.0673494592       -4.7418155800
 H        -9.4147117841        8.3663408035       -2.6128777172
 H        -8.8801216834        6.7534704700       -2.0650664910
 H        -8.3764506312        7.4121243846       -3.6402734903
 H        -8.0389070464       10.3892973061       -1.8924879225
 H        -6.9455959793       10.1048690441       -3.2041409019
 H        -6.5159648317       10.0560802406       -1.4000527086
 Na       -8.3691758970        5.0388986442       -0.5086372536
