117

 C        -4.0499641409       10.9866093741        3.1211716634
 C        -5.4383765840       10.2481585942        3.0944500730
 O        -6.0698607690       10.3008352872        2.0467553815
 C        -5.7044678599        9.2561324401        4.3117151482
 C        -5.3886780474        7.7898695562        3.8081552784
 O        -4.4745679061        7.1009394328        4.2722426611
 C        -6.0752794154        7.3122050836        2.4230310756
 C        -5.9280083291        5.7759217935        2.3574565854
 C        -6.8815611827        5.4764687350        1.2337375625
 O        -8.0356000298        5.8227037079        1.5127571276
 C        -6.5207158223        4.7122246601       -0.0507880796
 C        -6.1877312216        3.2486662253        0.4887667194
 O        -5.0741522129        2.8071615466        0.3300652703
 C        -7.3674155798        2.4227904684        1.1273742903
 C        -7.7495592852        1.2512053463        0.1942540197
 C        -8.6267097695        0.1361306549        0.7128955808
 O        -9.5730969628       -0.2597681072       -0.0396441011
 C        -8.4416710133       -0.6050349905        2.0414269017
 C        -9.1688883928        0.3575983013        3.0908619664
 O        -8.5255718980        1.0534208946        3.8642863562
 C       -10.6478921718        0.4387744908        3.2158508100
 C       -11.1926502849        1.8918445115        3.2415704546
 C       -11.3797343876        2.4129933879        1.7940100304
 O       -10.5910619569        2.0039159773        0.9581678261
 C       -12.3386155809        3.6069840242        1.3970638078
 C       -13.4102742681        2.9773516221        0.3719095044
 O       -12.9994569344        2.1838318509       -0.4537181516
 C       -14.8669084769        3.0005257040        0.7046823930
 C       -15.6573102619        3.3362178637       -0.5588017771
 C       -14.8235268746        4.3366169337       -1.4183629854
 O       -13.9482089135        4.9355358766       -0.9251027653
 C       -15.2485558071        4.5548325186       -2.9545507752
 C       -14.0479547977        3.6388147290       -3.7001623500
 O       -14.2443001993        2.5362789278       -4.1805181806
 C       -12.6428239483        4.2934563159       -3.9177739277
 C       -11.7398920359        3.5820152066       -4.9318297785
 C       -10.5242341256        2.6454894922       -4.2594588284
 O       -10.1741028605        3.0716273769       -3.1687784714
 C       -10.0456247878        1.3513153671       -4.9479484818
 C       -11.1968992158        0.1820152296       -4.5681842206
 O       -11.5976912066        0.2121722586       -3.4137565223
 C       -11.6679146423       -0.7831818694       -5.6850883309
 C        -9.6816642543        1.4268228119       -6.4112846871
 C        -8.7631225945        0.7725732268       -4.0624190648
 C       -16.6414635147        3.9720491144       -3.2112439929
 C       -15.2259881509        6.0113528900       -3.2776987322
 C       -12.8639915357        4.4483181521        2.5932475976
 C       -11.3924755633        4.5656013654        0.5791843427
 C        -9.1123557728       -1.9787934562        1.9130931965
 C        -6.9206975197       -0.6082335748        2.3597390594
 C        -7.5834385792        4.6719588696       -1.1035950771
 C        -5.1818123051        5.2374749784       -0.7082965299
 C        -4.9484290225        9.6806287829        5.5383832992
 C        -7.3590266732        9.2502187136        4.5681599655
 H        -3.8720231994       11.4421095134        4.1314262332
 H        -3.9375606111       11.7125548963        2.3804327353
 H        -3.2346365733       10.3216840898        3.0884952820
 H        -5.4741072235        7.7928844785        1.7030490675
 H        -7.0405214783        7.7057503543        2.3737216289
 H        -6.4181877945        5.3321394039        3.2716848237
 H        -4.9593413265        5.2452876086        2.1436994039
 H        -8.2642037401        3.0069449720        1.1280673888
 H        -7.0448014667        2.1151751264        2.0720241807
 H        -6.9362299452        0.7652977229       -0.3929166891
 H        -8.3070085681        1.7416001603       -0.5559274653
 H       -10.9824083913       -0.0514151605        4.1697773790
 H       -11.1021387237       -0.0365420097        2.2753918954
 H       -10.4475594159        2.5188785215        3.7402055409
 H       -12.1632997689        1.9189261214        3.8239941136
 H       -15.1223255694        3.8840735207        1.2891971562
 H       -15.2926476927        2.0343329885        1.0837332370
 H       -16.6927344161        3.7367996183       -0.3348767613
 H       -15.9429230128        2.4575424735       -1.1767747077
 H       -12.1655444415        4.3720306190       -2.9456318036
 H       -12.7338710213        5.3617716826       -4.2683433851
 H       -11.3084761383        4.4004792732       -5.4878634977
 H       -12.1880844431        3.0348089170       -5.6867922637
 H       -12.6662695645       -1.1116719759       -5.4026149815
 H       -11.0203425728       -1.6331995795       -5.6650480223
 H       -11.4586479796       -0.3044238339       -6.6268444127
 H        -8.8406934111        2.0386834254       -6.6102964062
 H       -10.4813101484        1.8484172845       -7.1074940708
 H        -9.4835298224        0.4150608338       -6.8389770706
 H        -8.8398284697        0.9639840179       -2.9643285576
 H        -7.8022245211        1.1893924194       -4.3803364033
 H        -8.6064350959       -0.2843618471       -4.3845886206
 H       -16.7232502791        2.9115649568       -3.3778032336
 H       -17.0283732767        4.4186811184       -4.0873959122
 H       -17.3378674364        4.2788647913       -2.3557132052
 H       -15.1675193313        6.2183355034       -4.3699406039
 H       -14.4729840051        6.5817151039       -2.7510695470
 H       -16.2601468201        6.3896086602       -2.8981963183
 H       -11.9501250199        4.8086701371        3.1753915899
 H       -13.5981194213        3.9249889142        3.2420315926
 H       -13.5201071685        5.3117486397        2.2460466599
 H       -10.6814587717        5.1135067591        1.2011548625
 H       -11.9658659438        5.3814095340        0.0760556587
 H       -10.9874523360        4.0440116212       -0.2496799576
 H        -8.8561428171       -2.6281421695        2.7567328960
 H        -8.6134776802       -2.5195972940        1.0396102772
 H       -10.1763029654       -1.9278173438        1.7420487145
 H        -6.3018936656       -1.0633177067        1.5460855609
 H        -6.6111502687       -1.2513527028        3.2667411166
 H        -6.5796759582        0.3621186758        2.6119505253
 H        -7.8556668833        5.6375419066       -1.4896860914
 H        -8.4552481665        4.1880239052       -0.6933619528
 H        -7.3417657458        4.0962866192       -2.0307672385
 H        -4.9877249225        6.3118736833       -0.7092292358
 H        -5.1534281235        4.7962954359       -1.7235357424
 H        -4.4220859238        4.6655447797       -0.1667700901
 H        -3.8738106063        9.4353298689        5.4802223323
 H        -5.2951465969        9.4354346330        6.5060549408
 H        -5.1080124325       10.7855043308        5.6378980117
 H        -7.9108601700        9.4723188318        3.6761400413
 H        -7.6571095297       10.0942029956        5.1799374433
 H        -7.6743728016        8.3380491510        5.0119000209
 Na      -10.7951630542        1.4078141781       -1.4273501883
