117

 C        -7.1276486727        9.0137589951        0.6601994505
 C        -7.9112125410        8.2733408667       -0.3513679103
 O        -8.7036164447        7.3204642830       -0.0856577809
 C        -7.4611297468        8.4353282306       -1.8358301410
 C        -6.1597796297        7.3825481536       -1.9129934360
 O        -6.2933577304        6.2545883020       -1.5280994819
 C        -4.8147749635        7.8472802426       -2.4128892489
 C        -4.0107300936        6.8976499472       -3.1750001036
 C        -4.6004813662        6.7176377544       -4.5420320762
 O        -5.5129507371        7.4247414866       -4.9562060270
 C        -4.1185832061        5.5608134578       -5.4550719339
 C        -4.8543710551        4.1871467776       -4.8888599148
 O        -4.2401404126        3.5532264160       -4.1671104705
 C        -6.3710476837        3.8213761227       -5.0399062896
 C        -6.7717132721        2.5340224708       -4.2118083514
 C        -7.6702055143        2.8448949864       -2.9634701711
 O        -7.7149341774        4.0454716005       -2.6411479405
 C        -8.1470093598        1.7623941908       -1.9815004671
 C        -9.5596498908        2.1393971177       -1.2936292874
 O        -9.5297364062        3.1643060239       -0.6065068390
 C       -10.6957980237        1.2472685346       -1.6247095041
 C       -12.0083521616        1.5078601048       -0.9523180139
 C       -13.1021163143        2.2342732969       -1.9515691918
 O       -13.0751185987        2.1354298503       -3.1597393137
 C       -14.0092786420        3.4993748653       -1.3134857561
 C       -14.8483668549        2.8286535177       -0.1059473783
 O       -15.1758665303        3.5097381263        0.8290945177
 C       -15.7505775755        1.5703721612       -0.4847525438
 C       -15.6795701671        0.5107504836        0.7213654553
 C       -14.4282725932       -0.3121039564        0.9682335227
 O       -13.9401086312       -0.8672410742       -0.0536622100
 C       -14.0764684283       -0.5867557973        2.4419974106
 C       -13.5598517199        0.6884659475        3.3136357028
 O       -13.8112755301        1.7749807639        2.8104260690
 C       -12.8912645991        0.3639734662        4.5881871197
 C       -12.7058140450        1.6271563916        5.4427382042
 C       -11.7758047707        1.3776995548        6.7163739004
 O       -11.0134868853        0.4261021568        6.7186756964
 C       -11.9257450444        2.4601077680        7.9767562730
 C       -12.2657878238        3.7482487165        7.2603361161
 O       -13.3628978630        4.2135749428        7.2912233932
 C       -11.2322097692        4.1921665393        6.2060492563
 C       -13.1523757447        2.0057956280        8.8577231813
 C       -10.5660489682        2.6470846122        8.8339377948
 C       -15.3380126446       -1.1917892847        3.0306686305
 C       -12.8803489376       -1.4982978152        2.4558818203
 C       -13.1490353183        4.6223842945       -0.8989095450
 C       -15.0469181397        3.7869457489       -2.4798142427
 C        -8.1864450655        0.3735121848       -2.6460436418
 C        -6.9496250940        1.7130098716       -1.0003049545
 C        -4.8290383381        5.7042166466       -6.9118607978
 C        -2.5519083385        5.3073633734       -5.5648635075
 C        -8.4710333752        7.6202878041       -2.8465499005
 C        -7.2380360300        9.8665138439       -2.3930507652
 H        -6.0028718135        8.9870675568        0.5495855275
 H        -7.3928692696        8.5433916485        1.6001083302
 H        -7.3635924774       10.0373249274        0.8201615922
 H        -4.2483331540        8.1305133129       -1.4988845360
 H        -4.9941623041        8.8071104221       -2.9133105747
 H        -4.0919261432        5.8100991692       -2.7427373986
 H        -3.0209520635        7.2036864305       -3.1064545297
 H        -6.6485513620        3.6519473251       -6.0951328639
 H        -6.9999119417        4.5943836706       -4.6955393303
 H        -5.7849020971        2.2485445662       -3.8896468909
 H        -7.0479639931        1.7552231028       -4.9156927990
 H       -10.3931371265        0.2194735985       -1.1526980585
 H       -10.8342392113        1.1084189078       -2.7113283754
 H       -11.9465821070        1.9961773239       -0.0455003419
 H       -12.5596522537        0.5613964423       -0.7705592515
 H       -15.3164530128        1.1765680216       -1.3534778740
 H       -16.7416847089        1.7789729501       -0.6612306372
 H       -16.5688084518       -0.2808168425        0.7246093085
 H       -15.8114450366        1.1919003170        1.6364857543
 H       -11.8532146437        0.0073976054        4.4312895837
 H       -13.3671340586       -0.4371836700        5.2484383944
 H       -13.7113192285        1.9748690550        5.7426407947
 H       -12.3009623773        2.5005165305        4.9513587696
 H       -11.7345249485        4.4365694437        5.2530914815
 H       -10.6163023283        3.3070135231        5.9621058262
 H       -10.5472308279        4.9407353480        6.5043416670
 H       -13.8001574774        2.8146019165        8.9870052795
 H       -12.8635305221        1.6466854265        9.8984382732
 H       -13.7557181712        1.1846510674        8.4662289974
 H        -9.8322092034        3.1484975959        8.2890288854
 H       -10.2690145795        1.6453936671        9.0465344886
 H       -10.7829047389        3.3609570010        9.6457255021
 H       -15.7670878482       -1.8526024051        2.2791489110
 H       -16.1595875030       -0.6097659044        3.1683075978
 H       -15.1917918133       -1.7583932660        3.8975274664
 H       -11.9045931657       -1.1530150047        2.4964924241
 H       -12.8169537236       -1.9982221688        1.3764480079
 H       -12.9581296311       -2.2843784652        3.1789494638
 H       -13.6217002811        5.3039823764       -0.1451568819
 H       -12.7554162044        5.1783991469       -1.8290017978
 H       -12.3032715948        4.2275369050       -0.4377670241
 H       -14.6115994163        3.9920477796       -3.4328000702
 H       -15.7390051702        4.6021230477       -2.2074927399
 H       -15.5316682707        2.7713493702       -2.6085408613
 H        -8.3767861528       -0.2386558175       -1.7907475910
 H        -7.2209286539        0.1973762763       -3.0068851771
 H        -8.7344703396        0.3260792295       -3.5685322425
 H        -6.0107887674        1.2519406918       -1.4748998075
 H        -7.0916621634        1.1973041903       -0.0817921239
 H        -6.5069117698        2.6758917888       -0.8168630587
 H        -4.4405122018        6.6477670395       -7.2975488830
 H        -5.9613226218        5.7985411643       -6.8326717164
 H        -4.5507011411        4.9317619576       -7.6752896214
 H        -2.1862848731        6.1837973076       -5.9012297555
 H        -2.2957075438        4.4537597861       -6.1673053879
 H        -2.2844141870        5.1089266010       -4.5751663674
 H        -9.3722836453        8.1723846006       -2.9005491243
 H        -8.5218097542        6.7460998897       -2.3982158150
 H        -8.0312376024        7.5477301553       -3.8456490145
 H        -8.0221879833       10.4399074140       -2.0166150779
 H        -7.3449356978        9.9336632799       -3.5377853890
 H        -6.3720272457       10.2873095851       -1.9861322703
 Na       -8.1917911732        5.1128957343       -0.4221095505
