117

 C        -7.9635192119        9.0046496090        0.4446230046
 C        -7.9978062030        7.9465534076       -0.6169661918
 O        -8.6926991765        6.9028856342       -0.4346562081
 C        -7.1915466082        8.1357699614       -1.9623555177
 C        -5.8758297102        7.1769610695       -1.8170322004
 O        -6.0728535333        6.0885333785       -1.3503686029
 C        -4.5551294221        7.7097753154       -2.2652933484
 C        -3.7538957403        6.8389435525       -3.2554503771
 C        -4.4527634060        6.6334435004       -4.5974061263
 O        -5.2992784073        7.3436517278       -5.1443664681
 C        -4.0218568473        5.2618742211       -5.5377613770
 C        -4.7135687602        4.0053943053       -4.8333629467
 O        -4.1493941906        3.1685379018       -4.1763838067
 C        -6.2005068177        3.7680709731       -5.2048121500
 C        -6.7854443427        2.4526563854       -4.5568937712
 C        -7.2936096306        2.7371855030       -3.1284143515
 O        -7.3486548770        3.9141466406       -2.8364707910
 C        -8.0335226178        1.5647481144       -2.1436137256
 C        -9.4862743591        2.1724673254       -1.7118885644
 O        -9.5032615412        3.1959415662       -1.0853286075
 C       -10.6980876814        1.3614026754       -1.6721325833
 C       -11.9327488605        1.9882314509       -0.8610308472
 C       -13.1218903417        2.1688353909       -1.7092855614
 O       -13.2552586229        1.5971812276       -2.8228845585
 C       -14.0682850283        3.3958532961       -1.3048927657
 C       -15.1979000383        2.8505795092       -0.2081490305
 O       -15.3211331698        3.5933736000        0.7486653687
 C       -15.9950942225        1.4873644894       -0.4122696278
 C       -15.9332753800        0.8299814666        1.0587015855
 C       -14.6909215335       -0.1179591968        1.3473113784
 O       -13.9965387877       -0.3010730709        0.3623606287
 C       -14.3111986485       -0.6783520976        2.7717972387
 C       -13.5827665348        0.5497909893        3.4999465239
 O       -13.3208646895        1.5048078685        2.8301398554
 C       -13.1929085935        0.4007919568        4.9115496611
 C       -13.1828541288        1.8458215483        5.5448815059
 C       -12.1541340162        1.8850005418        6.6910576530
 O       -11.1727147118        1.1578289994        6.5974180822
 C       -12.1294439161        2.8755183080        7.8976240259
 C       -12.1679281165        4.2683715226        7.4169299105
 O       -13.2549348621        4.7906055953        7.1393444319
 C       -10.8285568513        5.1082663715        7.1922065199
 C       -13.4230599655        2.7262450035        8.6206695865
 C       -11.0102432227        2.6861293819        8.9214615717
 C       -15.6607982666       -1.2274634839        3.4447212513
 C       -13.2215125647       -1.7384780494        2.6076289850
 C       -13.3954798941        4.6729377470       -0.8095967704
 C       -14.8460437355        3.7238180439       -2.7197329690
 C        -7.9967089189        0.2198996690       -2.8566407147
 C        -7.2425313612        1.4415111676       -0.8175469731
 C        -4.5153530607        5.3331644967       -6.9305368167
 C        -2.4670290371        5.1783013313       -5.4178789509
 C        -8.1515352282        7.5779666318       -3.0838339211
 C        -6.9977275300        9.6317397568       -2.4148350451
 H        -7.0194900886        9.3183306384        0.7008115359
 H        -8.5209020335        8.6077264692        1.3189280204
 H        -8.3103747175        9.9223492359        0.1072479103
 H        -3.9438773747        8.0495156496       -1.3850100511
 H        -4.8120197628        8.6391909391       -2.7696163417
 H        -3.4803338438        5.8156471514       -2.7189976685
 H        -2.8329014229        7.2943590315       -3.4276375920
 H        -6.2013608458        3.4420507465       -6.2956605178
 H        -6.8229573860        4.5882842755       -5.0896992694
 H        -5.9065080517        1.8183505506       -4.3912420191
 H        -7.4842248548        1.9508115235       -5.2912014357
 H       -10.4505864557        0.3010913631       -1.2372850827
 H       -11.0537951352        1.0744552639       -2.6859207423
 H       -11.7187117971        2.9885694117       -0.5773469798
 H       -12.2407985462        1.3558143875        0.0274577209
 H       -15.4306306802        0.8800263975       -0.9969433317
 H       -16.9962511744        1.5818032562       -0.7492135753
 H       -16.8906404419        0.3259534364        1.3570179198
 H       -15.8019744438        1.6798488792        1.8406772280
 H       -12.1645976293        0.0052547306        4.9450476247
 H       -13.7920631698       -0.3354629844        5.5273914437
 H       -14.2204817977        2.0583894311        5.9291378045
 H       -12.9296036843        2.5813558432        4.7749196011
 H       -10.8384213328        5.6991815766        6.2562902029
 H        -9.9807282900        4.3312387641        7.0141163666
 H       -10.7380973680        5.7528334822        8.0385302504
 H       -13.5001220371        3.3852104892        9.4606575664
 H       -13.5579772024        1.6365791030        8.9587319903
 H       -14.2683732073        3.0855432784        8.1157941397
 H       -10.0589112624        2.6059898681        8.4612709930
 H       -11.3107645762        1.6908454871        9.2708182863
 H       -11.0675593670        3.4402778592        9.7303103446
 H       -16.1658941280       -2.0110421372        2.8215664420
 H       -16.3986796447       -0.5547241601        3.7910875260
 H       -15.5018874721       -1.7724827224        4.3702146676
 H       -12.6226107141       -1.5720737895        1.7747356839
 H       -13.5938098223       -2.7401257613        2.4406936937
 H       -12.4384551534       -1.6872379784        3.4417254820
 H       -14.0907868198        5.6052147798       -1.0085739300
 H       -12.4865935707        4.7562348419       -1.4148852047
 H       -13.0917171295        4.6114830534        0.3060031397
 H       -14.1028647244        4.1572891102       -3.3537111672
 H       -15.7009730110        4.3520248679       -2.6445938097
 H       -15.1179865533        2.7594758338       -3.1533017103
 H        -8.8151093271       -0.4904207527       -2.3797514407
 H        -7.0669897339       -0.1353292005       -2.6124088622
 H        -8.3050060435        0.3090670545       -3.8450708977
 H        -6.0799144963        1.5730537149       -0.9267955317
 H        -7.3411575993        0.6229314550       -0.1170622075
 H        -7.5672398563        2.2415516874       -0.1739427791
 H        -4.0981575607        6.0985570229       -7.6142174814
 H        -5.5877630262        5.3207164316       -6.8171290562
 H        -4.2826793864        4.4117904636       -7.4284659483
 H        -2.0317627446        6.0848208291       -5.5142026094
 H        -2.2657976260        4.5942870840       -6.1937649934
 H        -2.2759282138        4.6459473096       -4.5460819140
 H        -8.9189175540        8.2292876477       -3.2052151934
 H        -8.3391998774        6.5927514546       -2.8239732442
 H        -7.5577966504        7.6077211814       -3.9974552784
 H        -7.9817227310       10.0870420460       -2.4670701174
 H        -6.6885434546        9.5439138788       -3.4461010426
 H        -6.2880632541       10.2481003142       -1.9113082594
 Na       -7.8385303323        4.7112690627       -0.8569097129
