117

 C        -9.1198061684        8.9614367376       -0.3844937568
 C        -8.0732610623        7.9046631908       -0.7883935233
 O        -8.2149848294        6.8283355766       -0.1864244658
 C        -6.9991808117        8.0289928598       -1.9073582519
 C        -5.7260147295        7.0623943763       -1.6543795078
 O        -5.7264027042        6.0617168876       -1.0225895722
 C        -4.4577481035        7.4031681144       -2.5155363581
 C        -3.8075248437        6.1151072723       -3.2337136198
 C        -4.4175755244        5.9039624599       -4.5823119485
 O        -5.4412056020        6.4272915594       -4.8753850496
 C        -3.8598834139        4.7389499142       -5.4468140562
 C        -4.7544103126        3.6155959097       -4.9121327786
 O        -4.5269722340        3.0611105458       -3.8044726962
 C        -5.9115433267        3.0530027045       -5.6940930614
 C        -6.7537525690        2.1153569400       -4.8532846696
 C        -7.2815004082        2.7130505353       -3.4776651309
 O        -7.0260377950        3.8953660523       -3.2642706887
 C        -8.0647405305        1.6578037455       -2.4866117970
 C        -9.4659557092        2.3482617095       -1.9787097175
 O        -9.3580403027        3.5381836130       -1.6438993238
 C       -10.6914688802        1.3625028906       -1.6180812726
 C       -11.8034202549        2.1626618485       -0.8664592098
 C       -13.1264436875        2.0406071608       -1.6792375817
 O       -13.2112630079        1.2105749311       -2.5526679345
 C       -14.1769485747        3.2885914412       -1.5008826253
 C       -15.0779153351        2.8754786703       -0.2032716927
 O       -15.1139910919        3.5560137287        0.7715580343
 C       -15.7234466202        1.3763526391       -0.2102665311
 C       -15.8614296961        0.7111353189        1.1222506033
 C       -14.5771340687        0.0823746431        1.5488784272
 O       -13.7541891542       -0.1827853839        0.6967376567
 C       -14.5045278290       -0.4177039773        3.0470184237
 C       -13.4862136102        0.6271220390        3.8082908685
 O       -12.7925961051        1.3742746160        3.1002876771
 C       -13.6236910107        0.8361937588        5.3363638069
 C       -13.4958054028        2.2860532317        5.7379629938
 C       -12.2872567000        2.4768274598        6.7067808382
 O       -11.2506020955        1.9842872993        6.3665728643
 C       -12.4810968625        3.4167538336        7.9476149844
 C       -12.0617891991        4.8466848558        7.4637337211
 O       -12.7363403060        5.3012236737        6.5926690960
 C       -11.0446236567        5.6697348247        8.2637658315
 C       -13.9848343228        3.4873364526        8.4252961532
 C       -11.6233207438        2.6713872943        9.0787350027
 C       -15.9021570609       -0.5098441499        3.6801280660
 C       -13.9041287816       -1.6791743049        3.0868668805
 C       -13.4252801365        4.8771474593       -1.2175081774
 C       -15.2273221207        3.5179733979       -2.6464223579
 C        -8.4120086822        0.2210678535       -3.1309621726
 C        -7.2112040921        1.3816300108       -1.2780580991
 C        -4.2263044032        4.9937322253       -6.9957060540
 C        -2.2879655183        4.6037076133       -5.2451496384
 C        -7.8842253631        7.4544081069       -3.1084536756
 C        -6.4965465924        9.5619751897       -2.1314194025
 H        -8.6127962855        9.9541621299       -0.4056583832
 H        -9.6361935402        8.8568237325        0.4839227621
 H        -9.8142257690        9.1238027367       -1.2428953228
 H        -3.7551465614        7.8056895027       -1.7709755814
 H        -4.5188042540        8.2009840002       -3.3033181514
 H        -3.9286776276        5.2580690468       -2.6716976048
 H        -2.6998862648        6.3065562221       -3.0945084698
 H        -5.6483571545        2.6190446274       -6.6604425500
 H        -6.5974403586        3.8784130058       -5.8469475690
 H        -6.3068795828        1.1910998996       -4.5238354733
 H        -7.7202246237        1.9754261298       -5.3248198299
 H       -10.1908334488        0.7479936657       -0.8036305388
 H       -10.9772769019        0.6062176185       -2.4060181941
 H       -11.2842462346        3.0671558313       -0.5113292158
 H       -11.9086377696        1.5944665874        0.0216519539
 H       -15.0411440799        0.7543415903       -0.7870750870
 H       -16.6526862723        1.3380361349       -0.5681348184
 H       -16.5877029740       -0.2145211611        1.0040279477
 H       -16.3837654372        1.2941792600        1.9588745114
 H       -12.8840004030        0.1989235925        5.8848184155
 H       -14.6039144360        0.3767621354        5.4748672285
 H       -14.5205647390        2.6388362406        6.0495538659
 H       -13.1510625147        2.8183223360        4.8656381131
 H       -11.2538315791        6.7610701340        8.4830719248
 H       -10.2099912640        5.5516500255        7.6152129356
 H       -10.8862344319        5.0282055082        9.1975887454
 H       -14.1465748993        4.3277518039        9.2015492195
 H       -14.3036087550        2.6361844794        8.9276034026
 H       -14.6754982550        3.7464769445        7.5672030946
 H       -10.5694871389        2.4475600189        8.7435456912
 H       -12.1431523200        1.7328404345        9.1917715211
 H       -11.7956644920        3.0812132095       10.0302148698
 H       -16.5979376216       -1.1820158892        3.2181576366
 H       -16.3617474474        0.5323468256        3.7693348152
 H       -15.9202620907       -0.9049249661        4.7196088716
 H       -12.8176034129       -1.4796198381        2.8205278527
 H       -14.3747335511       -2.4932585082        2.4398919020
 H       -13.8833651448       -2.2210431630        3.9710532321
 H       -12.2995949173        4.9084380527       -1.3813979000
 H       -13.7895760978        5.1212671937       -0.1326872491
 H       -13.9916291453        5.4809245581       -1.8460769499
 H       -14.6540424742        3.8372014469       -3.5281257756
 H       -15.9087189938        4.2326326993       -2.2520121075
 H       -15.7776719423        2.6589553355       -2.8731435621
 H        -8.8794091468       -0.4315974281       -2.5872548233
 H        -7.4960073095       -0.2808652481       -3.5043220034
 H        -9.1859899919        0.3786332809       -3.9371363272
 H        -6.3902033233        0.7797460087       -1.5177234605
 H        -7.7594800089        0.7005088732       -0.5265528578
 H        -6.8912533314        2.1582975138       -0.4892787131
 H        -3.5978834148        5.8076296254       -7.3733263385
 H        -5.2101853690        5.3711905422       -7.1557381782
 H        -3.9949246125        4.1270405110       -7.5986929690
 H        -1.9380444606        5.5515511314       -5.2818520259
 H        -2.0558097201        4.0209031154       -6.1140814043
 H        -2.1377587101        4.1054153527       -4.2742515051
 H        -8.8902427152        7.8306229675       -3.0367851111
 H        -7.9273558533        6.4163366880       -3.0338457885
 H        -7.2795150468        7.6887748314       -3.8887982303
 H        -7.3187026218       10.1426903800       -2.4690003599
 H        -5.6218473107        9.6135708422       -2.8358036323
 H        -6.1965040982       10.0005389096       -1.2195013848
 Na       -7.4006886378        4.6858942284       -1.1497527890
