117

 C        -9.2764931845        8.7921321186       -0.6397916033
 C        -8.1530109967        7.8007800387       -0.9235491285
 O        -8.1119378476        6.6838651172       -0.2956271416
 C        -6.9514447132        7.9837976406       -1.9780265493
 C        -5.6782476678        7.0129953728       -1.7307123998
 O        -5.5390431822        6.1294860293       -0.9393629648
 C        -4.4511410926        7.3544059169       -2.6436623070
 C        -3.8866778359        5.9529727380       -3.1357574014
 C        -4.3802227873        5.7166632664       -4.4978679319
 O        -5.3784461534        6.2908531482       -4.9776354236
 C        -3.8567328173        4.4188334453       -5.2511380932
 C        -4.7659204576        3.2314500669       -4.7633508610
 O        -4.3661972369        2.5005524971       -3.8280210085
 C        -5.8780521654        2.7654196451       -5.7709336817
 C        -6.9626771355        1.8738196580       -4.9878333703
 C        -7.4551732580        2.5440603350       -3.6818259931
 O        -7.2025358369        3.6995147183       -3.3675255435
 C        -8.1587547347        1.6352458833       -2.6648240504
 C        -9.4196635711        2.3010791233       -2.0565238826
 O        -9.3352255819        3.5017755142       -1.7724651139
 C       -10.7050049108        1.5040979027       -1.6343689579
 C       -11.7497415144        2.4486998450       -0.9467503973
 C       -13.0125207249        2.2127934836       -1.7754651315
 O       -12.9612104233        1.4824928639       -2.7697496662
 C       -14.2454163105        3.3241966755       -1.5839957633
 C       -14.9210580478        2.6982050383       -0.2271595235
 O       -14.4453675473        3.1616890170        0.7887210328
 C       -15.6212205675        1.3226671206       -0.3152639101
 C       -15.9424360359        0.7998739011        1.1052633036
 C       -14.6268216987        0.1575563029        1.6658059414
 O       -13.6343506223       -0.0238707411        0.9553469272
 C       -14.6582822810       -0.1936421580        3.3218839517
 C       -13.6508329389        0.8846299495        3.9452460830
 O       -12.7588936089        1.1089719635        3.1195537404
 C       -13.7049197132        1.1288018486        5.4252686719
 C       -13.5007252775        2.6536336409        5.5839589125
 C       -12.4466682688        2.9262430726        6.6963172371
 O       -11.4566061551        2.3249032847        6.6035257255
 C       -12.6216857615        3.7285781454        8.0573227204
 C       -12.0163707524        5.1568861544        7.6750535445
 O       -12.2612726326        5.4251112217        6.4956397261
 C       -11.1550075615        5.8917312700        8.6958709412
 C       -14.2496653194        3.8306186634        8.3524373098
 C       -11.9305072307        3.0886975793        9.3162332627
 C       -16.0416441713       -0.2899758360        3.9366250290
 C       -13.9737374421       -1.5251330685        3.3434892297
 C       -13.7315409119        4.8191715527       -1.2916651259
 C       -15.0483724466        3.2337252086       -2.9475262327
 C        -8.6971619521        0.3010129658       -3.1057785797
 C        -7.1173685471        1.2976463375       -1.6277815532
 C        -4.0604078222        4.6678775748       -6.8190989343
 C        -2.3084234982        4.0439918402       -4.9563270670
 C        -7.5453271232        7.7787648752       -3.3752190044
 C        -6.4908813173        9.4880970934       -1.9564356783
 H        -9.2930249158        9.7493648881       -1.1539207759
 H        -9.3295343299        8.9975288036        0.3328812975
 H       -10.2561735433        8.2194869491       -0.9060928691
 H        -3.8029687761        8.0293014483       -2.0780504179
 H        -4.7830462273        7.8667380616       -3.5440938892
 H        -4.3792030540        5.2578807036       -2.3839284411
 H        -2.8091577703        5.7824373786       -2.9547279879
 H        -5.7023589551        2.2016329466       -6.7991549725
 H        -6.3823771901        3.6888011078       -6.0497801200
 H        -6.6853119946        0.8418138023       -4.6751295054
 H        -7.9289271148        1.7904187856       -5.6323331087
 H       -10.3675758970        0.6842059645       -0.9513672977
 H       -11.2926165571        0.9706789809       -2.2956045960
 H       -11.3285825952        3.4150914527       -0.7462319350
 H       -11.9018404362        1.9972750583        0.0739078395
 H       -14.9974895586        0.5273048469       -0.7750203117
 H       -16.5390235915        1.4253559441       -0.8790695509
 H       -16.6010224580        0.0015699136        1.0441385169
 H       -16.3931677878        1.4712109877        1.7807780646
 H       -12.8637492987        0.6900615900        5.8657346074
 H       -14.5442785595        0.5349792093        5.8184854344
 H       -14.5015370176        3.1339931622        5.8220876768
 H       -13.0535597896        3.0552599177        4.7115658000
 H       -11.4923198581        6.9075298439        8.5811225216
 H       -10.1201025277        5.7226596303        8.4886384349
 H       -11.4503696236        5.5576471703        9.6888667428
 H       -14.4231713145        3.8951002146        9.4887036374
 H       -14.8121795412        2.9638834416        8.0449500738
 H       -14.7238184371        4.5314467646        7.6918744023
 H       -10.7891656011        3.0360657863        9.2834971780
 H       -12.3644943506        2.1017615898        9.5396135454
 H       -12.2532783791        3.7595377167       10.0865476691
 H       -16.7496823399       -0.8506934099        3.3187883600
 H       -16.5797421544        0.6800202495        3.7910900965
 H       -16.0517127463       -0.6566213689        4.9740233672
 H       -13.4221784146       -1.7023146408        2.4125828875
 H       -14.7316057516       -2.2944356884        3.3920173982
 H       -13.3123831751       -1.7666063838        4.1517348411
 H       -13.3343428876        4.7279752183       -0.2494284743
 H       -14.6755495505        5.4610864652       -1.3792649924
 H       -13.0603308456        5.0886144074       -2.0827507191
 H       -14.4557730198        3.7441388853       -3.7956291593
 H       -15.9535072599        3.8324073922       -2.7151932932
 H       -15.3160244335        2.2348636764       -3.2325072974
 H        -8.8915955071       -0.1849699127       -2.2441387547
 H        -8.0534383906       -0.4235582734       -3.7115512993
 H        -9.6536054652        0.3742128524       -3.7700000720
 H        -6.1334775903        1.5477358265       -1.7980071459
 H        -7.0352947109        0.2604059860       -1.3066349072
 H        -7.3065471639        1.8278601063       -0.6876260015
 H        -3.4520866244        5.5083327698       -7.2843780813
 H        -5.0532983614        5.0694744054       -6.9245589343
 H        -4.0132104443        3.7324372802       -7.3455649540
 H        -1.8239557425        4.8239559673       -5.3054302633
 H        -2.1966036284        3.2016408896       -5.5786305256
 H        -2.2126453603        3.7871774577       -3.9509388744
 H        -8.1946107576        8.7024790036       -3.4339800248
 H        -8.3316084645        6.9633396860       -3.4557924323
 H        -6.6930553576        7.6963190775       -4.0175357085
 H        -7.3782429760       10.1410407259       -1.7300847209
 H        -6.1559964096        9.8276209448       -2.9317476993
 H        -5.6869613929        9.6770752608       -1.2113041575
 Na       -7.4312830907        4.6694574634       -1.1850737054
