117

 C        -9.1764323558        8.7637195783       -0.8334794727
 C        -8.1184126568        7.5648783258       -1.0244895162
 O        -8.4085150055        6.5086412198       -0.6268580464
 C        -6.8638898883        8.0281682984       -1.8916872917
 C        -5.6696288516        7.0465313698       -1.8369733977
 O        -5.7286045283        6.0621228970       -1.0569577985
 C        -4.4136425743        7.3770597583       -2.6598796593
 C        -3.6208785516        6.1115109324       -3.2796037561
 C        -4.3688007326        5.4365685224       -4.5714514911
 O        -5.2085996281        6.1257996498       -5.1429947666
 C        -3.8426393659        4.2025363158       -5.2692430577
 C        -4.8382720015        2.8433206634       -4.9134026238
 O        -4.5294708455        2.1375565518       -4.0343668934
 C        -6.0685072915        2.7027511553       -5.7414665380
 C        -6.9842631924        1.7392276839       -5.0617580033
 C        -7.4297027924        2.4147629354       -3.6594282278
 O        -7.2985295577        3.5812569271       -3.3497519573
 C        -8.1349629067        1.4655633925       -2.6258528267
 C        -9.3936240088        2.2964508641       -1.8522403758
 O        -9.2769849427        3.4724473995       -1.6712922272
 C       -10.5626635429        1.5585932670       -1.2660799002
 C       -11.8736146962        2.3803669655       -1.0312269156
 C       -13.0002695873        2.3289621434       -2.0494920598
 O       -12.9295379327        1.6594331815       -3.0675797899
 C       -14.2531060938        3.2519240531       -1.6514040690
 C       -14.6789575379        2.6126308196       -0.2583094334
 O       -14.2920777368        3.0173538684        0.8156385835
 C       -15.6450024166        1.4166371032       -0.3807288504
 C       -15.9928650587        0.7352170143        0.9259136988
 C       -14.6623040818        0.0312781278        1.6714563863
 O       -13.7111280106       -0.0313915041        0.9759978948
 C       -14.6856782151       -0.1207244926        3.2670469185
 C       -13.5149242509        1.0175449882        3.9031268640
 O       -12.5807524505        1.3987217326        3.2988510328
 C       -13.8340467766        1.4435072862        5.4760001117
 C       -13.3662872264        2.8438433528        5.7261971844
 C       -12.4135356904        2.9964002471        6.8816265255
 O       -11.4072056877        2.2648467224        6.9461327173
 C       -12.7987515860        3.9692063690        8.1003971202
 C       -12.0250159601        5.4130233273        7.6949514631
 O       -11.9629381652        5.8708468242        6.5637420176
 C       -11.3636508658        6.1918781079        8.9193018900
 C       -14.3894127477        4.1607772103        8.2889826553
 C       -12.1759028101        3.3074325095        9.3830816389
 C       -16.1050147937        0.0374814956        3.8637238263
 C       -14.2312155094       -1.6733310560        3.3535169688
 C       -13.8537205052        4.9133640729       -1.4085934274
 C       -15.4824096721        2.9914214551       -2.5739620258
 C        -8.5984751066        0.2185998058       -3.2094771171
 C        -6.9056359598        1.1621790766       -1.6050899710
 C        -3.7012459513        4.4657848324       -6.7842777259
 C        -2.3300445923        3.8721734812       -4.6216911656
 C        -7.5373517479        7.7796366959       -3.3425306266
 C        -6.3092229048        9.4413048997       -1.5704595132
 H        -9.1236342959        9.2537628964       -1.7834760494
 H        -8.6876280485        9.6536353796       -0.2305395243
 H       -10.1613100681        8.5857171546       -0.4543692413
 H        -3.7127148246        7.9682379165       -2.0227803114
 H        -4.7150759456        8.0172252873       -3.5123573033
 H        -3.5560412534        5.4650659170       -2.4038710497
 H        -2.6316640435        6.4520038381       -3.4446184882
 H        -5.9604902264        2.3377983718       -6.6942677870
 H        -6.4854758324        3.7060055942       -5.9246994871
 H        -6.5213292313        0.7552763935       -4.8794096059
 H        -7.8736516657        1.6173084329       -5.6179501491
 H       -10.1574024442        1.1582410375       -0.3484907525
 H       -10.9570435264        0.5613736002       -1.7048779630
 H       -11.5707410935        3.4421997254       -1.1682623296
 H       -12.0963571852        2.2847674599        0.0095911153
 H       -15.1307377054        0.7281963323       -0.9808763953
 H       -16.6344974748        1.6404998064       -0.8916262430
 H       -16.9283802165        0.0413429101        0.9255352841
 H       -16.2816519902        1.6192707436        1.6364945895
 H       -13.4400188872        0.6100469956        6.1337673472
 H       -14.8819387042        1.3644857767        5.6739568415
 H       -14.2098403313        3.4688527953        5.7763523960
 H       -12.6857983554        3.1771138784        4.8703501400
 H       -11.0312692669        7.1361879662        8.4787291516
 H       -10.6019081853        5.4563550545        9.3739677422
 H       -12.1239733861        6.4027046599        9.6642121708
 H       -14.4463876171        4.6852021849        9.1821679555
 H       -14.9798092171        3.2007647119        8.3295353041
 H       -14.9037026716        4.5858105019        7.4341270232
 H       -11.1546502402        3.3335643453        9.1094116669
 H       -12.4544894813        2.2590032129        9.3327781086
 H       -12.3001895067        3.8223156487       10.3876121608
 H       -16.8768667983       -0.5408881252        3.2977314810
 H       -16.5040829363        1.0302874561        3.7364460479
 H       -16.0172602745       -0.2496591809        4.9199359874
 H       -13.2022561382       -1.8003549204        2.9888613732
 H       -14.8135860671       -2.2685213641        2.6675802813
 H       -14.3136262652       -2.1641003595        4.4324968944
 H       -14.4737296146        5.2134598888       -0.6223264648
 H       -14.1526458053        5.3222845547       -2.3126573539
 H       -12.6964806455        5.0465536897       -1.2795179964
 H       -15.2687298906        3.2584268205       -3.5647096089
 H       -16.3859392674        3.5086068309       -2.2437969962
 H       -15.5058512647        1.8810761194       -2.5768212311
 H        -8.7921235732       -0.5395838257       -2.4010220809
 H        -8.0679490817       -0.3003988116       -3.9283175458
 H        -9.3942522389        0.4366605343       -3.8849855776
 H        -5.8120764553        1.0871794085       -1.9802980891
 H        -7.0631075514        0.2170350392       -1.0819450654
 H        -6.7248559153        1.9400658395       -0.8676245010
 H        -2.8253237832        5.0296217334       -6.7975223182
 H        -4.4794650596        5.0958947801       -7.2359220409
 H        -3.6168972938        3.5394331498       -7.3392984014
 H        -1.6338326756        4.5587626257       -5.2568445124
 H        -2.0835536424        2.7650740325       -4.8580734857
 H        -2.4149150598        3.9727365477       -3.5466386712
 H        -8.3145775103        8.4021275961       -3.5238878846
 H        -7.9502212977        6.7678728440       -3.3085671808
 H        -6.7188975703        7.8412719306       -4.0072262751
 H        -6.9656862281       10.2059504668       -1.9749455897
 H        -5.4056268203        9.6325867589       -2.0677572922
 H        -6.1373918325        9.5224635305       -0.5051737885
 Na       -7.4724542199        4.6855903648       -1.3911993922
