117

 C        -8.8042501688        8.6316264348       -0.6639189244
 C        -7.9841863871        7.6257335587       -1.3611594648
 O        -8.4243961382        6.4990175460       -1.5205824844
 C        -6.7412557754        8.0295421888       -2.1828197535
 C        -5.6617797151        6.8934040286       -2.2290723515
 O        -5.7776928011        5.8639376853       -1.4554485934
 C        -4.4012493585        7.1421090481       -2.9798017300
 C        -3.6656987701        5.7987389771       -3.3382804909
 C        -4.2915752497        5.1626367572       -4.4722107532
 O        -5.2723884958        5.6189428956       -5.0300311369
 C        -3.6319515946        3.7357099174       -5.0266106752
 C        -4.7860876973        2.6741867690       -4.7955356459
 O        -4.7556854159        1.7575242331       -4.0899481026
 C        -6.1578232110        2.7550101898       -5.7742490565
 C        -7.3233203513        1.8925140430       -5.1113536524
 C        -7.5652077159        2.3742203418       -3.6436133920
 O        -7.2762735919        3.5430940677       -3.3445063418
 C        -8.1084024688        1.2775750406       -2.5906245920
 C        -9.4437128659        2.0749889886       -1.7241376238
 O        -9.1872234294        3.0948770103       -1.1538130511
 C       -10.6618115917        1.3152867567       -1.7964368597
 C       -11.8236649214        2.0958214985       -1.1337534911
 C       -12.8565893344        2.5860494330       -2.1756086469
 O       -12.6983965015        2.2808056042       -3.3644077010
 C       -14.2144697967        3.2216288528       -1.7907582700
 C       -14.8028441413        2.4251642418       -0.4782870538
 O       -14.3855021679        2.8959370815        0.5646166684
 C       -15.7099986838        1.2819959778       -0.3810011956
 C       -16.0594463542        0.9125966369        1.0750408792
 C       -14.7146988688        0.4113475953        1.9336004183
 O       -13.8258617127       -0.0328785089        1.2341007377
 C       -14.6918708085        0.3285473504        3.5326828863
 C       -13.6176329635        1.3209463675        3.9643931903
 O       -12.6073290404        1.4517716785        3.2951767397
 C       -13.7254165027        1.9874956318        5.3927594343
 C       -12.8428388843        3.1548481000        5.6431371848
 C       -12.3578706610        3.2209408964        7.1812284114
 O       -11.8713775341        2.2777529705        7.7365258727
 C       -12.8159710143        4.3700039061        8.1213518980
 C       -12.0273289087        5.6747600858        7.8477098397
 O       -11.8215225251        5.9546802804        6.6648258982
 C       -11.7273892189        6.5928530152        9.0137447187
 C       -14.3661417829        4.4986504129        7.8237795309
 C       -12.7451215842        3.7941976605        9.6370197336
 C       -16.0405558155        0.2809152337        4.3063710277
 C       -14.1192138821       -1.0497864876        3.9622355899
 C       -14.0265664906        4.6687095194       -1.5351012710
 C       -15.1681006681        2.8548567572       -3.0865125230
 C        -8.6344799608       -0.0628987362       -3.2733639193
 C        -7.1016172413        1.1097977579       -1.3902771421
 C        -3.1897635992        4.0291957318       -6.5602949412
 C        -2.2990605877        3.4451808044       -4.2950513494
 C        -7.3096018592        8.2100080888       -3.6525093969
 C        -6.0333585109        9.3168248759       -1.5168301522
 H        -9.0675872347        9.3047289797       -1.4093695098
 H        -8.4171689051        9.2777428896        0.1009154175
 H        -9.6604569147        8.0274101210       -0.2065817594
 H        -3.7402739476        7.8112399822       -2.3821551736
 H        -4.5634580074        7.6374040676       -3.9229981262
 H        -3.6855760677        5.1676207948       -2.4200404877
 H        -2.6818178087        5.9721776995       -3.5327249660
 H        -5.9040690639        2.6514172309       -6.7985446063
 H        -6.5235077228        3.7929531253       -5.7552040358
 H        -7.1921283464        0.7713760319       -5.0428953066
 H        -8.3430339440        2.0168634657       -5.5157884618
 H       -10.5641228348        0.3677080376       -1.3617711437
 H       -10.8544200069        0.9974974348       -2.8629935658
 H       -11.2140443144        2.7519568050       -0.5114056114
 H       -12.2894816525        1.4374226673       -0.3837451830
 H       -15.4392216648        0.3997359114       -0.7872684865
 H       -16.6217701347        1.5636812821       -0.8758885251
 H       -16.6968280347       -0.0192320020        1.0102487710
 H       -16.6418535721        1.7706709882        1.6385360805
 H       -13.3399001268        1.1719210225        6.0335761333
 H       -14.7443553238        2.1094237501        5.6199465840
 H       -13.1486878452        4.1436245445        5.4270317497
 H       -11.9862640116        3.0210610682        4.9045664950
 H       -11.6293303655        7.5616265598        8.4892799569
 H       -10.7437034065        6.2025678451        9.5208094583
 H       -12.5251312926        6.6694327117        9.7264941284
 H       -14.6804464917        5.1620753618        8.6173245646
 H       -14.9518119378        3.4762001672        7.7552353435
 H       -14.6132738872        5.1166549859        6.9649268473
 H       -11.7757100687        3.5943863611       10.0690018234
 H       -13.3918492539        2.9060514361        9.5825322237
 H       -13.1503266383        4.6306902427       10.2864611214
 H       -16.4903233076       -0.7884548064        4.1876118368
 H       -16.7096866211        1.1161026695        4.1322780107
 H       -15.7406168844        0.3143564681        5.3859017355
 H       -13.3367110743       -1.4810967572        3.2442820925
 H       -14.9176968685       -1.6881922154        3.9084175922
 H       -13.5544454450       -0.9668727009        4.9902177157
 H       -14.4074759423        5.2325263307       -2.3685592426
 H       -12.9312752293        4.7577503820       -1.3559248643
 H       -14.6042597406        4.7065401844       -0.5414088608
 H       -14.8814202432        3.3220365010       -4.0062672935
 H       -16.1320234579        3.3385165991       -2.8346882271
 H       -15.1729832483        1.7317470568       -3.2095335301
 H        -8.6979015840       -0.6834668200       -2.4989018002
 H        -7.9375202076       -0.5280591116       -3.9461067435
 H        -9.5274800613       -0.0982662637       -3.9807979052
 H        -6.2448478371        0.3365148536       -1.3734052577
 H        -7.6530337169        0.9234118315       -0.4770281494
 H        -6.5734219760        2.0134620381       -1.3250382852
 H        -2.3272379007        4.6830100095       -6.5108433569
 H        -4.0481352349        4.3812346542       -7.1254081984
 H        -2.8705222068        3.1413387470       -7.0719550610
 H        -1.5506302770        4.1697779926       -4.3820727858
 H        -1.8847773227        2.4882390519       -4.7165515289
 H        -2.6569047534        3.1368527547       -3.2428693536
 H        -8.2325958476        8.6557527291       -3.7133241043
 H        -7.3768975980        7.1737063093       -3.9993815623
 H        -6.6696718567        8.8201728608       -4.1263849360
 H        -6.9122901108        9.9924992561       -1.2705973804
 H        -5.3560696309        9.8642137342       -2.0236903988
 H        -5.5406014482        9.0337376378       -0.5569974987
 Na       -7.6362046408        4.5347017398       -1.3983104730
