117

 C        -8.7064955330        8.6547525611       -0.6166525864
 C        -7.9814039191        7.6350281385       -1.5283372344
 O        -8.4508028316        6.5167722185       -1.8116616887
 C        -6.6779887887        8.0611619353       -2.2492773424
 C        -5.5718938959        6.8913589495       -2.2096435729
 O        -5.6723292330        5.8805824591       -1.5601237758
 C        -4.3228398069        7.1070011638       -3.0439972387
 C        -3.6405628684        5.7727551245       -3.2852252052
 C        -4.2827650129        5.0638053226       -4.3926934854
 O        -5.3095102699        5.4481396796       -5.0554833072
 C        -3.7020519441        3.6134602258       -4.9831520192
 C        -4.8661522338        2.5730078706       -4.8670655281
 O        -4.6721233815        1.7269666217       -3.9890037753
 C        -6.0926787262        2.7442742800       -5.6418505758
 C        -7.2643893840        1.9480606148       -5.0855847577
 C        -7.5606252984        2.3747704474       -3.6604185914
 O        -7.2648538692        3.5067028678       -3.3488952422
 C        -8.1077682276        1.3689002657       -2.5041842690
 C        -9.3123019605        1.8888099018       -1.7861235880
 O        -9.2559157940        2.9241584882       -1.1525013397
 C       -10.6910351037        1.2237368836       -1.8053672424
 C       -11.9594129151        1.9226043582       -1.1917114671
 C       -12.9243903756        2.3416667819       -2.3677357201
 O       -12.5216523663        2.5050790456       -3.5060463795
 C       -14.2800636972        3.0549120422       -1.7804570870
 C       -14.7279229083        2.4340063184       -0.3661706689
 O       -14.3599706994        3.0862488004        0.5849919289
 C       -15.6275465297        1.1602829772       -0.3557588244
 C       -16.0867930032        0.8687338637        1.0851546480
 C       -14.8443343215        0.3448299079        1.9318686708
 O       -13.8679912708        0.0240441160        1.2400499838
 C       -14.7136505960        0.3748288576        3.5697499592
 C       -13.6201781367        1.4383959132        3.9957036063
 O       -12.6356230795        1.6306438161        3.2956859641
 C       -13.6593090293        2.1449389740        5.4793510317
 C       -12.6082641347        3.1907785222        5.7851092935
 C       -12.4698614780        3.1955973147        7.2815705275
 O       -11.9608132631        2.2551193946        7.7821043492
 C       -13.0488885786        4.3953760613        8.1552666150
 C       -12.1433911448        5.7755076523        7.7930806223
 O       -11.6885331779        5.9120747483        6.6839327778
 C       -11.7038445263        6.6018831867        8.9624712931
 C       -14.5111069868        4.5129723667        7.7105599854
 C       -12.8679298440        4.0934964324        9.6202235105
 C       -16.0225740734        0.5697112017        4.5044534709
 C       -13.9484282369       -1.0303804997        3.9291000439
 C       -14.1109691128        4.6468054470       -1.6725065186
 C       -15.3000019000        2.9364601750       -2.9332560965
 C        -8.4831971929        0.0733445983       -3.1547872165
 C        -6.9976119295        0.9987324516       -1.5386688382
 C        -3.2435404278        3.9478554829       -6.4408030494
 C        -2.4890934986        3.0976036067       -4.2935560533
 C        -7.3187989125        8.4022459043       -3.6447896200
 C        -6.0525157844        9.3049997059       -1.6209079179
 H        -8.6986285707        9.7435898564       -1.0227680384
 H        -7.9884237233        8.7769670747        0.1518474073
 H        -9.6210759046        8.3332364284       -0.0498880713
 H        -3.6587542002        7.9184094479       -2.6932234680
 H        -4.5978670703        7.3918470033       -4.0592940258
 H        -3.6798554092        5.2508390623       -2.3006370642
 H        -2.6109581177        5.8452193733       -3.5422711563
 H        -5.8592640662        2.3416024768       -6.6780898021
 H        -6.1657590410        3.7472102848       -5.8407673134
 H        -7.0263308236        0.9353767132       -5.0891908251
 H        -8.2021488082        2.0369786562       -5.6245603849
 H       -10.7553058204        0.1343401788       -1.6078509039
 H       -10.9103447670        1.1926729772       -2.8879396170
 H       -11.5581079318        2.7398310611       -0.6254284412
 H       -12.4746871726        1.2577004954       -0.4051308731
 H       -15.3474693420        0.1139675812       -0.8412037607
 H       -16.5898904265        1.4111597667       -0.8521001817
 H       -16.9423304826        0.1187715425        1.0482857739
 H       -16.4258557221        1.8473613038        1.6029351546
 H       -13.7690163099        1.4261198490        6.2764813622
 H       -14.6428320158        2.7062740846        5.3564825411
 H       -12.7058222223        4.2390586941        5.4269613867
 H       -11.6525157774        2.9550978410        5.3402888371
 H       -11.7527064723        7.6819379310        8.6083905032
 H       -10.7792072124        6.2454396498        9.3413886870
 H       -12.5358110816        6.4861023105        9.7247725371
 H       -15.1667621299        4.9874290458        8.4952876641
 H       -14.9553767396        3.6094121432        7.3138594159
 H       -14.5112606178        5.3577156413        7.0211395061
 H       -11.7692519088        4.1294925295        9.8218915302
 H       -13.2899500994        3.0962939639        9.8684480055
 H       -13.2049480103        4.9138764470       10.2315764748
 H       -16.7139591802       -0.2322828750        4.1826829108
 H       -16.3727311306        1.6257454688        4.4451756797
 H       -15.8267633732        0.3531888444        5.5711998149
 H       -13.0739801743       -1.3336513573        3.2538895269
 H       -14.7060248194       -1.8740165251        3.9475040886
 H       -13.5117976030       -0.8633962918        4.8298482691
 H       -14.1106048070        5.0734076577       -2.7007992751
 H       -13.1722087597        4.8216942404       -1.1431912293
 H       -14.8964129831        4.8031659617       -1.1349158045
 H       -14.7375224920        3.2261477900       -3.8761450606
 H       -15.9779965857        3.7735244289       -2.7884961449
 H       -15.7416761941        1.9693110387       -3.0900160973
 H        -8.6259904257       -0.7159291637       -2.4165436589
 H        -7.7388093043       -0.2615104054       -3.9252575554
 H        -9.3842841886        0.1528957692       -3.7965000827
 H        -6.1263115007        0.6174135824       -2.0193233173
 H        -7.3523057794        0.2068377865       -0.7718250002
 H        -6.6040113961        1.9016598643       -0.9910826360
 H        -2.3392159375        4.6038471557       -6.4668336082
 H        -4.1159225717        4.3534856949       -6.8396670859
 H        -2.9582155896        3.1253049283       -7.0259754377
 H        -1.5346070315        3.6173969986       -4.8213736365
 H        -2.3824618175        1.9610050368       -4.3840951575
 H        -2.5795046645        3.2883129842       -3.1314850875
 H        -8.1488549131        9.1079288840       -3.5043503506
 H        -7.6488518505        7.5452177377       -4.0750524928
 H        -6.6236286427        9.0080950826       -4.2023630532
 H        -6.7386317981       10.0872061291       -1.3773310200
 H        -5.2728396558        9.7120116736       -2.3116573431
 H        -5.4730061782        9.0561917363       -0.7588636459
 Na       -7.7125293495        4.4312335121       -1.2556271585
