117

 C        -8.2547613936        8.4014378492       -0.5790379112
 C        -7.7110576960        7.6190956735       -1.7405246152
 O        -8.3727665873        6.6950992288       -2.2594681972
 C        -6.4010908669        7.9960987908       -2.4224750105
 C        -5.3945003752        6.7757448526       -2.3563170011
 O        -5.7630235664        5.6859072514       -2.0134582807
 C        -3.9973738885        6.9427144822       -2.9987349445
 C        -3.4916756261        5.4025354693       -3.3521611907
 C        -4.2740313371        4.7013760841       -4.5451247874
 O        -5.1918687601        5.2552981523       -5.0870497011
 C        -3.7752116590        3.3464655357       -4.8254814154
 C        -5.0037644854        2.2702723746       -4.5942049349
 O        -4.8607032572        1.3995182499       -3.7727581503
 C        -6.1897982896        2.5898801138       -5.5446994922
 C        -7.4071994653        1.7201129464       -5.0137433822
 C        -7.8172623053        2.0906025213       -3.4843634887
 O        -7.7325602283        3.2446277964       -3.1680862897
 C        -8.1379969362        1.0020876755       -2.4085354087
 C        -9.5978291456        1.5286749702       -1.7335586424
 O        -9.5254408720        2.6710866354       -1.2535531177
 C       -10.9483344171        0.8036778606       -2.1857681671
 C       -12.0210240811        1.4578731448       -1.4375440573
 C       -12.8374276789        2.3871790786       -2.3690329388
 O       -12.5535203142        2.4007080153       -3.5534404473
 C       -14.1948763612        3.1745776491       -1.9212487401
 C       -14.6133877171        2.8308390428       -0.4595963407
 O       -14.1562561322        3.5044491942        0.4369893169
 C       -15.3968571746        1.6166594739       -0.0758434480
 C       -15.7029015360        0.9738596074        1.3525287660
 C       -14.4302798100        0.6259876018        2.1454976105
 O       -13.5277468146        0.0581190977        1.5763255677
 C       -14.4056523764        0.8814763769        3.6731483821
 C       -13.5175515246        2.1163009061        3.9217965721
 O       -12.5812234081        2.3772323296        3.1950213497
 C       -13.6607905391        2.6993792886        5.3363067392
 C       -12.4584869045        2.8577168521        6.2290827141
 C       -12.7437949836        3.3029815636        7.6396101902
 O       -12.4172393354        2.4354791960        8.4925969894
 C       -13.2587713727        4.7954912278        8.0349127063
 C       -12.1745429256        5.8091415049        7.6570244369
 O       -11.6524453838        5.8196840105        6.5210535040
 C       -11.9998312919        6.8969740892        8.6796107295
 C       -14.6374811717        5.0660373544        7.2939621006
 C       -13.6138081223        4.7644502481        9.6123114728
 C       -15.8275186685        1.1358737028        4.2569893049
 C       -13.8014754730       -0.3240682955        4.4831181111
 C       -14.2687779858        4.6873092970       -2.0807937202
 C       -15.1900740721        2.4735193942       -2.8195339683
 C        -8.2835335950       -0.4168071672       -2.9962219459
 C        -7.1176638592        0.9559922226       -1.2402546730
 C        -3.4261057933        3.2750543419       -6.2981168070
 C        -2.6926349111        2.8552773859       -3.9470620431
 C        -6.7401199363        8.3970105673       -3.8447660372
 C        -5.6009502687        9.2300386606       -1.9200729228
 H        -8.5198206144        9.4337916532       -0.6645351362
 H        -7.4261484933        8.3632545666        0.2882354601
 H        -9.1605622955        7.9449170445       -0.1446328869
 H        -3.2358841705        7.4633237042       -2.4245614406
 H        -3.9095758381        7.5078678156       -3.9482294611
 H        -3.3449436226        4.8137569435       -2.4794357417
 H        -2.3722483106        5.6225005237       -3.6777258539
 H        -5.8754459828        2.2958092638       -6.5326479066
 H        -6.4494872063        3.6828930612       -5.5938293452
 H        -7.3975377193        0.6746801189       -5.0886723214
 H        -8.2687878243        2.0064910024       -5.5482201961
 H       -10.8276987566       -0.3264359456       -2.0042126616
 H       -10.9679037257        0.8669361773       -3.2614961934
 H       -11.6695252391        2.1631993737       -0.5884004052
 H       -12.6859550933        0.8212935166       -0.8520558092
 H       -15.0153045359        0.6658354602       -0.6401158063
 H       -16.4537471542        1.6519258084       -0.6209590494
 H       -16.2432596313       -0.0424876959        1.4182405914
 H       -16.3043331941        1.6780330879        1.9281878569
 H       -14.5430530656        2.2979502792        5.8887479911
 H       -13.9094778281        3.7747806629        5.1073187242
 H       -11.5969784227        3.3911725199        5.7676693392
 H       -11.9849495509        1.8970703871        6.4593789169
 H       -10.9887228313        7.1962209709        8.3475845232
 H       -11.7568321168        6.4368482023        9.6959328469
 H       -12.7331029235        7.7062430461        8.5748827012
 H       -15.0924550225        6.0305596373        7.5511205290
 H       -15.3166571004        4.3070697998        7.6689539839
 H       -14.4556897459        5.1591523247        6.1939089323
 H       -12.8945301284        4.2724083531       10.3001106628
 H       -14.5658047103        4.1998561928        9.7523378444
 H       -13.9914199833        5.7725778385        9.9391247895
 H       -16.3647574892        0.4337586364        3.6257795787
 H       -16.0633662589        2.2231336913        4.1993623874
 H       -15.8997994530        0.8384501273        5.3282305958
 H       -12.9261673458       -0.6004185889        4.0094965422
 H       -14.4132386620       -1.1441627384        4.6650044076
 H       -13.7002257429        0.0611753338        5.5784476966
 H       -14.0929533297        4.8630463280       -3.0642155120
 H       -13.6026989972        5.0268449056       -1.3871426662
 H       -15.3779235916        4.9480221692       -1.7850896486
 H       -14.9420365409        2.7960213891       -3.8286212472
 H       -16.2546104054        2.7913277221       -2.5903519583
 H       -15.2308076874        1.3599834865       -2.8015732531
 H        -8.1129759776       -1.2260950902       -2.2571796716
 H        -7.4036311140       -0.5616582191       -3.6542278517
 H        -9.3584302774       -0.6388882544       -3.1897265987
 H        -6.4574521220        0.0249376422       -1.4371597379
 H        -7.7217855716        0.6712531871       -0.3963167488
 H        -6.5550218779        1.8411037374       -0.8343515632
 H        -2.5296944695        3.7667913984       -6.4928478784
 H        -4.1607832145        3.8306169207       -6.8829105925
 H        -3.2444303936        2.2337022767       -6.5877788909
 H        -2.0128872793        3.4641440760       -3.3688981360
 H        -2.2461656754        1.8990543538       -4.4577515188
 H        -3.2398600950        2.4210610484       -2.9627588179
 H        -7.5905439576        8.9635153866       -3.7027447947
 H        -7.1302793582        7.4802140148       -4.4440989849
 H        -5.9691919211        8.8028573393       -4.4574293788
 H        -6.1146455030       10.1749478438       -1.8117172136
 H        -4.8190047018        9.4004252455       -2.6333516203
 H        -5.0479258176        9.0544100041       -1.0034429371
 Na       -8.1188347590        4.4620480453       -1.4858950786
