117

 C        -8.0078505627        8.5534528571       -0.6116914569
 C        -7.6334193124        7.5422042454       -1.7432121040
 O        -8.5158633080        6.6842140629       -2.0630608714
 C        -6.2560426702        7.8017650164       -2.4420267027
 C        -5.4753258853        6.3869404657       -2.3945302633
 O        -5.9537312421        5.3606666770       -2.1054876166
 C        -3.9654550475        6.6774283161       -2.9372249697
 C        -3.2433221819        5.3076880748       -3.2708463611
 C        -4.0930072783        4.5572885741       -4.4247823252
 O        -4.8401723485        5.3159744566       -5.0560015284
 C        -3.7248444861        3.0820506365       -4.8851589418
 C        -5.1571765660        2.2832717361       -4.5871130842
 O        -5.1688705617        1.5457649963       -3.5671202456
 C        -6.2743504714        2.2379322293       -5.5996955875
 C        -7.3831564114        1.2569739232       -5.0516253065
 C        -7.8678932624        1.7731297055       -3.6095763777
 O        -7.6566742534        2.9586083260       -3.4988477369
 C        -8.3409584031        0.9748239595       -2.3710688477
 C        -9.6221557065        1.6423751877       -1.7787248758
 O        -9.6330917575        2.8162274369       -1.3924257974
 C       -10.9773454016        0.7339644465       -1.6717412374
 C       -12.1310790796        1.5951931787       -1.2936633775
 C       -12.8121767054        2.3127378976       -2.4705655652
 O       -12.2725258762        2.4837159091       -3.5555557591
 C       -14.2163639022        2.8890923242       -2.1458521514
 C       -14.5615256386        2.6358885257       -0.6524193106
 O       -14.0922384197        3.4136805690        0.1819467011
 C       -15.3501932576        1.3587810494       -0.0564884130
 C       -15.6260382468        1.5096173067        1.4372443188
 C       -14.2422070293        1.0064154955        2.1683535227
 O       -13.4370246561        0.3329698033        1.6076155272
 C       -14.2258840434        1.0178182451        3.8141440620
 C       -13.3842647098        2.2662118804        4.1220250840
 O       -12.5638592380        2.5707896932        3.2705051920
 C       -13.5749593134        3.2441365406        5.3779447711
 C       -12.4689058635        3.0266070411        6.3895653693
 C       -12.9320599469        3.5457058092        7.8662250604
 O       -12.8732392467        2.6977063497        8.7593655869
 C       -13.4685280769        4.9918449820        8.1785655569
 C       -12.3206499627        5.9170607266        7.5476143686
 O       -11.6354671987        5.7493746049        6.5313748906
 C       -11.8127261129        7.0847531747        8.5567562154
 C       -14.7209276580        5.5231094092        7.2061988551
 C       -13.8381803732        5.2498935742        9.6491328357
 C       -15.7348318705        1.0868706924        4.3095193519
 C       -13.5871104304       -0.2698410177        4.4753295521
 C       -13.9702241234        4.5572311284       -2.4435027450
 C       -15.4554453401        2.5105722872       -3.0051457898
 C        -8.4965828196       -0.6635758200       -2.5506675844
 C        -7.3211226717        1.1847689407       -1.2128565477
 C        -3.3696396317        3.0082653014       -6.2906378375
 C        -2.6685237769        2.3977466616       -4.0367485641
 C        -6.5511872618        8.0868110967       -4.0118666643
 C        -5.4992402861        9.0753324173       -1.9692337873
 H        -8.8764140184        9.1752303774       -0.7411492196
 H        -7.1387945398        9.2557500319       -0.2658077283
 H        -8.2707253240        8.0754163724        0.3143112149
 H        -3.3368358025        7.1967036786       -2.1924185140
 H        -3.9191718503        7.3931029615       -3.8080160623
 H        -3.0940124111        4.9271592735       -2.3611363145
 H        -2.2223303986        5.3505259139       -3.7829213567
 H        -5.8762233667        1.8809095918       -6.5951286454
 H        -6.5815542482        3.2434148457       -5.6368208341
 H        -7.0710690153        0.2168518941       -5.1175013631
 H        -8.4270538825        1.2931345118       -5.5519042668
 H       -10.7805987523        0.2016129118       -0.6843268421
 H       -10.9247670101        0.0406440507       -2.4489723189
 H       -11.8639155786        2.1897118939       -0.4535477676
 H       -12.8817274761        0.9454971214       -0.8082893029
 H       -14.8504039628        0.3994269976       -0.0940932899
 H       -16.1621444971        1.1486390657       -0.6797783869
 H       -16.5204016158        1.1807242904        2.1002132456
 H       -15.4470787312        2.5531802480        1.6768206284
 H       -14.3802143260        2.8694533797        5.9161020564
 H       -13.8702477841        4.2166706680        4.9758231044
 H       -11.4619148886        3.4659498076        6.0766117548
 H       -12.3122899481        1.9836563272        6.4015585500
 H       -11.1793308553        7.8293308819        8.1362626033
 H       -11.1648267648        6.5219979179        9.2339399336
 H       -12.6886018898        7.3972419604        9.1238429232
 H       -15.3673661433        6.1292657979        7.8695655696
 H       -15.3137205511        4.7615359178        6.7770978174
 H       -14.2363205135        6.1129445712        6.3831338555
 H       -13.0305999620        5.0546337145       10.3895805347
 H       -14.6223142206        4.5692326617        9.9556763403
 H       -14.3242085832        6.1730396613        9.7987741859
 H       -16.3046613897        0.2483694605        4.0065771441
 H       -16.1663093633        1.9568589597        3.7229011360
 H       -15.6861192709        1.1550688345        5.3953786567
 H       -12.6272714628       -0.3583117395        4.0371840826
 H       -14.1742157619       -1.1947548681        4.2386322791
 H       -13.5924757013       -0.2242527258        5.6585056431
 H       -13.9698796632        4.7008628502       -3.5088727728
 H       -13.1776747707        4.8442876048       -1.7882797961
 H       -15.0215402229        4.9591622964       -1.9589894579
 H       -15.2913368413        2.7408671434       -4.0733497804
 H       -16.3802733348        2.9211243106       -2.6638043946
 H       -15.6963606697        1.4714658548       -2.9272413747
 H        -9.3471792432       -1.0202657210       -1.8452997705
 H        -7.6354675127       -1.1433506712       -2.2008721537
 H        -8.8490093387       -0.7583856089       -3.5362179834
 H        -6.3763166667        0.7689274165       -1.5654452026
 H        -7.7266926023        0.6338416174       -0.4163957786
 H        -7.2637420383        2.1592051924       -0.7628636186
 H        -2.6222824759        3.7407144866       -6.6006782972
 H        -4.2239269453        3.3445986233       -6.9003767844
 H        -3.1699435391        1.9506549332       -6.5437258494
 H        -1.6672409158        2.4580802287       -4.3221502473
 H        -2.8370725925        1.2910471628       -3.8824769167
 H        -2.5031430403        2.8064390408       -2.9465801298
 H        -7.0617701539        8.9361574874       -4.1741204013
 H        -7.1521340217        7.2672677593       -4.4636666946
 H        -5.6311135686        7.9857921088       -4.5425198684
 H        -6.1053350464        9.9592212944       -2.0792378546
 H        -4.5985614575        9.4646879950       -2.5331734633
 H        -5.2634684057        8.9589963293       -0.9106660933
 Na       -8.3441146914        4.5537440552       -1.7959119623
