117

 C        -7.3673261768        8.7799385259       -0.8588788910
 C        -7.3211074881        7.5207136507       -1.7016489491
 O        -8.2830220562        6.7932988981       -1.4962114333
 C        -6.2171721376        7.2187397130       -2.5876712025
 C        -5.5364008251        5.8496837420       -2.1628719446
 O        -6.1766313700        4.8725154034       -1.8340411467
 C        -3.9807595167        5.7213579448       -2.4142704224
 C        -3.4454199801        4.4226976495       -3.0035794812
 C        -3.7813478682        4.1081331944       -4.5424662113
 O        -4.1593261361        4.9798198017       -5.2862814695
 C        -3.6356570829        2.5644345212       -5.1187762667
 C        -4.9177895848        1.8088391798       -4.5302508558
 O        -4.9285847929        1.4339759679       -3.3173906044
 C        -6.0951042323        1.3556712115       -5.4119227982
 C        -7.1759743181        0.5489752379       -4.5436419000
 C        -7.9520004460        1.5187525399       -3.5399678290
 O        -7.9366320647        2.6911658829       -3.9241125213
 C        -8.2112643663        1.0758703794       -2.1365929064
 C        -9.6456872864        1.6299445415       -1.6825671856
 O        -9.8944141748        2.7921914594       -2.0169678904
 C       -10.8318487595        0.7984652289       -1.1090073378
 C       -12.2108648801        1.6347587607       -0.8662987603
 C       -12.9860482426        1.8895204645       -2.2110199345
 O       -12.3829525260        1.6851451235       -3.2280017659
 C       -14.3418522662        2.7056000291       -2.1618427181
 C       -14.8055868352        3.0936262149       -0.7385604690
 O       -14.1189663694        3.9270567880       -0.1404001348
 C       -15.7623734230        2.3359779183        0.2265589120
 C       -15.3542895028        2.4975066592        1.8134478724
 C       -14.3625874639        1.4786642244        2.3677364680
 O       -13.7432302505        0.7927617775        1.5845984310
 C       -13.9827508154        1.3479760009        3.8205066651
 C       -13.2594056843        2.8072051879        4.1928694584
 O       -12.1933866724        3.1486996046        3.6075817968
 C       -13.8834757717        3.7122965089        5.2481766602
 C       -13.0653903191        3.4637740897        6.6263215218
 C       -13.7398803778        4.1946119005        7.8495292526
 O       -14.3035811805        3.4496848652        8.6715198860
 C       -13.6652911298        5.6294788221        8.1543298284
 C       -12.4080336994        6.2440619835        7.5030786308
 O       -12.1332855345        6.0918104081        6.2840857797
 C       -11.3560712088        7.1376820684        8.3089814402
 C       -14.7540950172        6.4828423075        7.4807126816
 C       -13.8663596818        5.8342736041        9.6560025726
 C       -15.1838508979        1.1147309110        4.6683956191
 C       -12.9263875609        0.3031031533        3.9177412430
 C       -14.0860202016        4.1397983700       -2.8738140375
 C       -15.2683159776        1.8520141285       -2.9462926782
 C        -8.1555561450       -0.5245848172       -1.9843757170
 C        -7.1766788186        1.6758809909       -1.2799066810
 C        -3.3972079058        2.7109327962       -6.6968515390
 C        -2.3051953745        1.9299788083       -4.4916788838
 C        -6.8176989271        6.9078529867       -4.0180177191
 C        -5.2325594427        8.3990464585       -2.6562962677
 H        -7.8062234348        9.4400736603       -1.4929276460
 H        -6.4458239875        9.2438799745       -0.5325393984
 H        -8.1422964928        8.7693774249        0.0067834919
 H        -3.3782882999        5.7976814237       -1.5263388994
 H        -3.7049968522        6.5659840341       -3.0662708461
 H        -3.8017273568        3.6355327741       -2.4205072275
 H        -2.2812980659        4.3507725527       -2.8616063936
 H        -5.7290186079        0.8156605975       -6.3881401607
 H        -6.4755125333        2.3199805498       -5.6187132556
 H        -6.7347497771       -0.2491526875       -4.0197722145
 H        -7.9261214719        0.0190424446       -5.1499624238
 H       -10.5460796516        0.7555358754       -0.0443463464
 H       -10.9109134567       -0.1672011972       -1.7031824406
 H       -12.1218470934        2.5703784342       -0.3684638907
 H       -12.8815005494        1.0119058550       -0.1924576583
 H       -15.7384695560        1.1877638429        0.1204613866
 H       -16.8124092738        2.6626586654        0.0578432053
 H       -16.2687914803        2.6703912456        2.3525210766
 H       -14.7609843399        3.3836151400        1.9011074640
 H       -14.9180404955        3.6525326021        5.5146924136
 H       -13.6223797302        4.7896290725        4.9486239397
 H       -11.9724563720        3.7787091580        6.5931608415
 H       -13.2316581655        2.4238418079        6.8162814934
 H       -10.6057533607        7.3053937105        7.5434538076
 H       -10.9150601607        6.5222007885        9.1633251877
 H       -11.7738654075        8.0998998513        8.6564095434
 H       -15.7599519904        6.4344360563        8.0169787444
 H       -14.9088217794        5.9934094281        6.5462695370
 H       -14.3133323579        7.4803664326        7.1936305502
 H       -13.1720118169        5.2866967448       10.3676734933
 H       -14.8536112816        5.5526349015       10.0844838878
 H       -13.5535373799        6.8216753019        9.9582303359
 H       -15.6459966259        0.1933663085        4.4432874284
 H       -15.9256358645        1.9705175238        4.3281027040
 H       -15.0294667999        1.3597538110        5.7403851738
 H       -12.0691046062        0.7868310591        3.5163095489
 H       -13.1196308095       -0.5001463443        3.3133860088
 H       -12.4512027533        0.1466872878        4.9467607803
 H       -13.8297032779        3.9218563073       -3.8499177760
 H       -13.2701407717        4.6503256249       -2.4056392022
 H       -15.0237795351        4.6406922086       -2.6719848084
 H       -15.4278270645        2.1259134059       -4.0244422282
 H       -16.2474162977        2.1351766733       -2.5840207655
 H       -15.1295891533        0.7864037468       -2.9881213418
 H        -8.9538039431       -0.9434079075       -2.6184314244
 H        -8.6331593167       -0.7435446238       -1.0401084094
 H        -7.0845184992       -0.8476623383       -1.7118231936
 H        -6.4243980639        0.8020058011       -1.0838144542
 H        -7.6069537935        1.8664142754       -0.3332861368
 H        -6.5130221867        2.4147821189       -1.7834646979
 H        -2.5911954769        3.3939530496       -6.7930058432
 H        -4.2561111197        2.9402928770       -7.2588339133
 H        -2.9989307585        1.8394580192       -7.1471076166
 H        -1.5186050079        2.0548020556       -5.1129137513
 H        -2.2245667939        0.9202145954       -4.4077752382
 H        -2.0597415364        2.2228951614       -3.4574080756
 H        -7.0222474979        7.7742758582       -4.6083458359
 H        -7.7867059357        6.2587773825       -3.8924016325
 H        -6.1184498924        6.4276955365       -4.7371528094
 H        -5.6628845354        9.3441817796       -2.5742581130
 H        -4.4690881234        8.3569733061       -3.4394052667
 H        -4.6666171883        8.3279730471       -1.7412946237
 Na       -8.6715911251        4.6870325693       -2.7172208352
