117

 C        -7.3160460703        8.9112267805       -0.8652472008
 C        -7.3750188759        7.4781942567       -1.6171210752
 O        -8.4391127702        6.7641345431       -1.5587321450
 C        -6.1786758256        7.0517785251       -2.5659767940
 C        -5.4588262215        5.6475832644       -2.2835775808
 O        -6.1041858115        4.6704204688       -1.9513975114
 C        -3.9615367718        5.5173495375       -2.3484831337
 C        -3.4936206958        4.2422113407       -3.0265569169
 C        -3.7458223901        4.1768921522       -4.4847047760
 O        -4.0341078539        4.9537889058       -5.2998751620
 C        -3.6267574381        2.6013821810       -5.0899248605
 C        -4.8238711696        1.7636600424       -4.5329065705
 O        -4.7602424076        1.3047524160       -3.4182586970
 C        -6.0655100316        1.3005407188       -5.3813226286
 C        -7.1242895716        0.5846534840       -4.6164875573
 C        -7.7313588956        1.5334511544       -3.5236258005
 O        -8.0182624993        2.6510335975       -3.8507153119
 C        -8.2744690575        1.0706780671       -2.0737972754
 C        -9.7493510191        1.7410065737       -1.7901849086
 O        -9.9324139027        2.9355267083       -2.0476714795
 C       -10.7347994955        0.8722672247       -1.0172863891
 C       -12.1556944818        1.5818011921       -0.7876628832
 C       -12.8988403383        1.9682761930       -2.2107643225
 O       -12.4659872297        1.5580841245       -3.2691308436
 C       -14.4237286604        2.6798118723       -2.1564184406
 C       -14.7255709902        3.0715128431       -0.5308798644
 O       -14.0973182937        4.0154056733       -0.1452679567
 C       -15.8389938701        2.4894922930        0.5159000771
 C       -15.1724521539        2.7399916274        1.8281530517
 C       -14.3220553723        1.6037581095        2.3037389435
 O       -13.8589441498        0.7593944036        1.5513868589
 C       -13.9216939158        1.5709720498        3.8734122657
 C       -13.2629388522        2.9957917939        4.2455721239
 O       -12.2543951252        3.2300037895        3.5378810462
 C       -13.7949201053        3.8069609247        5.3156371910
 C       -13.1383572333        3.4358614021        6.5961751943
 C       -13.8792801049        4.1386813109        7.8811107383
 O       -14.5971265983        3.4639626748        8.5552756293
 C       -13.6109779263        5.8224656640        8.1217056327
 C       -12.3086672569        6.2923426727        7.3673584863
 O       -12.2570580257        6.1506288458        6.1767540135
 C       -11.4053297545        7.0699777368        8.3451157832
 C       -14.7819392704        6.6902602987        7.3331133998
 C       -13.7801686026        5.9864626251        9.6373516084
 C       -15.1809476415        1.0484518600        4.7527612079
 C       -12.8823930412        0.3761848999        4.1068082602
 C       -14.1285946476        4.0521279948       -2.9306488348
 C       -15.4059664276        1.7559034684       -3.0739592897
 C        -8.1582751297       -0.6020674992       -1.8168556424
 C        -7.1437632887        1.7778258412       -1.1152021686
 C        -3.6066282138        2.6116852962       -6.5827311384
 C        -2.3897930776        1.8978761454       -4.4825479578
 C        -6.8948079450        6.8195008715       -3.9827568096
 C        -5.1795515556        8.2459946380       -2.8690996784
 H        -7.2881203831        9.8121519048       -1.4618442928
 H        -6.4043335370        8.8495949673       -0.3397287792
 H        -8.1189177225        9.1504585018       -0.0874422086
 H        -3.4883066655        5.5072804975       -1.3743462607
 H        -3.6457295929        6.4291627426       -2.8886821897
 H        -3.8951632459        3.4076776681       -2.5372418673
 H        -2.4378341551        4.0771870347       -2.9622118718
 H        -5.5952832191        0.5612742493       -6.0465176109
 H        -6.4087089509        2.1871300027       -5.9593866600
 H        -6.5363418356       -0.1315947254       -4.0066523673
 H        -7.8897198548       -0.0594732938       -5.1167095226
 H       -10.3114859414        0.5937471049        0.0652170753
 H       -10.8945775601        0.0806704526       -1.7132625943
 H       -12.2479786727        2.4650427642       -0.1264258528
 H       -12.8116151153        0.8691475306       -0.3562558597
 H       -15.9719109291        1.5149058046        0.4737396776
 H       -16.7439021195        2.9823491313        0.3232359632
 H       -15.9182921259        2.8768654983        2.6087939201
 H       -14.5966867843        3.5899771514        1.6979675658
 H       -14.9134424312        3.6447525544        5.4568310941
 H       -13.5875106301        4.8895810321        5.2499157477
 H       -12.0757033377        3.7874186575        6.6165325852
 H       -13.2851167865        2.3499030026        6.6780183236
 H       -10.5429590462        7.3823396461        7.7804011594
 H       -11.1229051451        6.2822540800        9.0934972374
 H       -11.8958378392        7.8412466500        8.7713168942
 H       -15.3830206817        7.0702557488        8.1452262348
 H       -15.5007145988        5.9449550704        6.8439894745
 H       -14.4360256368        7.3855061270        6.5323321991
 H       -13.1725675179        5.3547592058       10.2605366317
 H       -14.7787749650        5.6548308961        9.9465144090
 H       -13.4951500481        6.9430324215       10.1342225393
 H       -15.6309485133        0.2441859950        4.1956741349
 H       -15.9042054595        1.8083441298        4.9647944720
 H       -14.8603104887        0.7420436958        5.7559237665
 H       -11.7634844593        0.7148735697        3.8346241101
 H       -13.1464977829       -0.3959713583        3.3958310105
 H       -12.6900740558        0.0964705788        5.1059752555
 H       -13.5855708335        3.6590647599       -3.8566196545
 H       -13.2840338044        4.5369024134       -2.3110993353
 H       -14.9460641495        4.6224088756       -2.9853638040
 H       -15.3393715325        1.8236633750       -4.1355855238
 H       -16.4951847736        1.8015252062       -2.8860266463
 H       -15.0481487163        0.6997623300       -2.8516866026
 H        -8.2407524948       -1.2267203158       -2.6735714132
 H        -8.9763240319       -0.9922716873       -1.2162640447
 H        -7.3440751547       -0.5464350000       -1.0118571291
 H        -6.1855510091        1.1713300476       -1.2967791039
 H        -7.4015013698        1.6741448746       -0.0583182390
 H        -6.8309622096        2.7152748612       -1.5880448310
 H        -2.8250338623        3.1730197805       -6.9270561267
 H        -4.5793623048        2.9139881235       -7.0143632459
 H        -3.3826441100        1.6130002993       -6.9641202575
 H        -1.3949500072        2.0299679445       -4.9852386719
 H        -2.4844832713        0.8775456501       -4.6438571156
 H        -2.3204718267        1.9640295214       -3.5079438194
 H        -6.9789356591        7.6510523275       -4.8190828177
 H        -7.8299773232        6.3572598204       -3.8137741366
 H        -6.2713246126        6.1324959174       -4.6056743468
 H        -5.8743238293        9.0920415760       -2.7918503538
 H        -4.6216325699        8.2130234735       -3.7240080086
 H        -4.5099709628        8.4889315652       -2.0086985536
 Na       -8.4818483813        4.6799719782       -2.8325311569
