117

 C        -7.1446332407        8.5148075425       -0.9180129155
 C        -7.3816939689        7.3470009342       -1.8106850912
 O        -8.2671787222        6.5987298833       -1.6937369025
 C        -6.1715939776        6.8737242488       -2.9587829000
 C        -5.5050430764        5.5404504480       -2.4753476915
 O        -6.2082482482        4.5477453734       -2.2809807854
 C        -4.0622870383        5.3677957911       -2.3032531862
 C        -3.6054324433        4.0074509006       -2.7907656751
 C        -3.7537972435        3.9211918170       -4.3823704459
 O        -3.9092649464        4.9120816224       -5.0810621716
 C        -3.6974469953        2.4498945288       -5.0994460025
 C        -4.7958571716        1.5502694647       -4.3903278975
 O        -4.6508656035        1.1392692779       -3.2181535584
 C        -6.0540923213        1.1981497717       -5.2929976516
 C        -7.1637926276        0.4515776034       -4.3196938408
 C        -7.8097628402        1.5948204695       -3.4748646340
 O        -7.8535226684        2.7327183925       -4.0392913570
 C        -8.2545816945        1.1899685944       -1.9674228655
 C        -9.6226069725        1.8589208144       -1.7971010205
 O        -9.8269207365        3.0647825069       -1.9369398132
 C       -10.7391247009        0.9515196110       -1.0986103400
 C       -11.9958623433        1.8035785879       -0.7543181962
 C       -12.9897012786        1.8103220946       -2.2029488831
 O       -12.6006670884        1.3540140956       -3.2265289242
 C       -14.3627288666        2.5793442729       -1.9958250909
 C       -14.4481647357        3.2877048022       -0.5153640497
 O       -13.7808869823        4.3077002780       -0.3032104328
 C       -15.5428606096        2.6839232850        0.4129460176
 C       -15.1763343111        2.8361799354        1.9395243344
 C       -14.3499980015        1.5771716191        2.3881627857
 O       -14.0644087221        0.6682761641        1.6306587401
 C       -13.8097818853        1.5658635185        3.9267063528
 C       -13.2035937691        2.9926137159        4.2002116400
 O       -12.3739323566        3.4654021178        3.4576144018
 C       -13.8547502392        3.9832472197        5.2943882924
 C       -13.3109953791        3.4847055900        6.7703310358
 C       -14.1461632424        4.2920349764        7.7645779871
 O       -15.0773040951        3.8616787014        8.4279760392
 C       -13.7278438955        6.0524261449        7.9943538137
 C       -12.3542227355        6.4472363880        7.3398444836
 O       -12.1907964875        6.3570459092        6.0859415648
 C       -11.1937144581        6.8435253229        8.2926740685
 C       -14.9707825211        6.6071089136        7.3142627942
 C       -13.7405523527        6.1571867199        9.5223988936
 C       -15.1519397807        1.3182884311        4.6753051778
 C       -12.6714543750        0.6112911476        4.1741195495
 C       -14.2182759352        3.8648005173       -3.0384847260
 C       -15.5980211253        1.6133583098       -2.3780122204
 C        -8.2967633841       -0.3838681166       -1.7559904644
 C        -7.3778409720        1.9174466691       -0.9188701808
 C        -3.8242502660        2.5685919188       -6.7313434340
 C        -2.2188321854        1.8870906517       -4.7443768688
 C        -6.9347541376        6.6126417803       -4.2438865561
 C        -5.0623857189        8.0616014779       -2.9939516276
 H        -6.7033384239        9.2945949021       -1.4687478352
 H        -6.4755133148        8.2542620696       -0.0573701607
 H        -8.1235606036        9.0272631495       -0.5816312180
 H        -3.9290552777        5.3817157472       -1.1963899714
 H        -3.4750210988        6.1786360997       -2.7306618309
 H        -4.1180950878        3.1559674716       -2.2530873153
 H        -2.4843545916        3.8295364479       -2.5709650958
 H        -5.6514332924        0.6763232463       -6.1825144872
 H        -6.5343230731        2.1069111135       -5.5965447223
 H        -6.8242945087       -0.4415827577       -3.7991202041
 H        -8.0285446784        0.0768746977       -4.9101604947
 H       -10.3641441233        0.4777761281       -0.2873052863
 H       -11.1208621507        0.3205022847       -1.9472189939
 H       -11.7845973958        2.8342693640       -0.5568308095
 H       -12.5244157901        1.3440512912        0.1465916194
 H       -15.7526138744        1.5783796431        0.0218173904
 H       -16.4419795408        3.2966258554        0.0765290680
 H       -15.9809980469        3.0743873634        2.6661661326
 H       -14.5605293970        3.7866497168        1.6862640384
 H       -14.8975930787        3.8666494616        5.2423463019
 H       -13.5679406716        5.0361427587        5.2440808528
 H       -12.2618271634        3.6995835492        6.9274657139
 H       -13.5715698931        2.4464885607        6.7664551802
 H       -10.3590568464        7.1021057804        7.6815503854
 H       -11.0411139576        6.0741029313        9.0469151200
 H       -11.5802020814        7.7959962179        8.7813161089
 H       -15.0213464903        7.7178953532        7.1560379388
 H       -15.7663332507        6.3699797987        7.9625921503
 H       -15.1774062300        6.0153272816        6.4432770239
 H       -12.9500101123        5.7606530153       10.1393908717
 H       -14.5849336423        5.5576266908        9.7561081655
 H       -13.8889085539        7.0569507705       10.0047650122
 H       -15.6308997484        0.4695218466        4.2034879043
 H       -15.7325268749        2.2788963755        4.7076668277
 H       -15.1171360678        1.0945789694        5.7272604727
 H       -11.9220474444        0.9343900120        3.5364196262
 H       -12.8624003522       -0.3967956204        3.8950434338
 H       -12.2149378686        0.6917191578        5.2339383693
 H       -13.6381083421        3.5093141855       -3.8469616393
 H       -13.5944913353        4.4585860409       -2.4179978637
 H       -15.2620006921        4.3460025216       -3.1974882781
 H       -15.2138832991        0.9661952089       -3.2114641600
 H       -16.5622424210        1.9748768575       -2.7246002082
 H       -15.7592199837        0.8686633285       -1.6307970167
 H        -7.3790726986       -0.7972378122       -2.2974485152
 H        -9.1345565348       -0.8056818081       -2.2828834453
 H        -8.3563635488       -0.6856037805       -0.7204928416
 H        -6.4706911268        2.3900439181       -1.2639779834
 H        -7.2041532311        1.1431764792       -0.2402467166
 H        -7.9561164806        2.7359641082       -0.5379117074
 H        -2.8242477426        2.8927920546       -7.1859138216
 H        -4.6215923329        3.2487504670       -7.0817967522
 H        -3.9603542388        1.5482397026       -7.1686640331
 H        -1.5018898213        2.7385591853       -4.7768315012
 H        -1.6863300017        1.2412861443       -5.5504850139
 H        -1.9556066520        1.3288707177       -3.7065776878
 H        -7.0403072910        7.5068955149       -4.6675691434
 H        -7.9600524704        6.3700870575       -3.8972819892
 H        -6.6610134109        6.0076385313       -5.0540408017
 H        -5.5056347116        9.0102546429       -3.3118296637
 H        -4.1579605536        7.7826802980       -3.6676743470
 H        -4.6868099555        8.2566907190       -1.9722249835
 Na       -8.2792518179        4.5310688227       -2.6224751747
