117

 C        -6.9034482489        8.2266553889       -0.9943205706
 C        -7.1829443835        7.0510338676       -1.9722848062
 O        -8.1981865870        6.3763019961       -1.8033001731
 C        -5.9794018856        6.7206894326       -3.1862750423
 C        -5.4315089770        5.4158508293       -2.6632104222
 O        -6.1747058037        4.4917109288       -2.4595956215
 C        -3.9227453694        5.2742405491       -2.2820762877
 C        -3.5145740636        3.7578811675       -2.6339773599
 C        -3.7442784238        3.6868866798       -4.3278883504
 O        -4.0028868945        4.7200631538       -4.8563222412
 C        -3.5990712556        2.3850373262       -5.1142558592
 C        -4.7393546778        1.3854657304       -4.3341484438
 O        -4.6289579150        1.0891966278       -3.1976115740
 C        -5.8804537438        0.8956797974       -5.2125862879
 C        -6.9403131397        0.5601527760       -4.2921576112
 C        -7.6380692360        1.6652227842       -3.4339642569
 O        -7.8827760977        2.7431075990       -3.8346976582
 C        -8.2554399292        1.2122293063       -1.9055180312
 C        -9.7612150865        1.9032301851       -1.6094631859
 O        -9.9888130043        3.0746869597       -1.7448362505
 C       -10.8647620955        1.0716480830       -1.1542330983
 C       -12.0517559178        1.8831951877       -0.7643436423
 C       -13.0374479805        1.7903676296       -1.9785811478
 O       -12.9600573410        1.1252137856       -3.0273954385
 C       -14.3650701351        2.7678737678       -1.9865693849
 C       -14.2883233017        3.4249302031       -0.5504750473
 O       -13.5223842229        4.3047401644       -0.2748486205
 C       -15.5249643944        2.7876547889        0.4706013208
 C       -15.0537180042        2.9647695086        1.8999139247
 C       -14.3284220527        1.6728922241        2.4065133371
 O       -14.1031360702        0.7077722257        1.7402222725
 C       -13.8031768451        1.7708049420        3.9344712925
 C       -13.2406454895        3.2318227684        4.2138341034
 O       -12.3648444387        3.6156453005        3.4883702176
 C       -13.8060637302        4.0952495773        5.3077786937
 C       -13.4391632763        3.6538374213        6.6623880289
 C       -14.2827129048        4.5225489112        7.7604483220
 O       -15.2695350127        4.1052231692        8.2669618434
 C       -13.8624511635        6.1402081866        8.0069997500
 C       -12.4359799402        6.3745037622        7.3648472700
 O       -12.4639419382        6.5651584904        6.2028288275
 C       -11.1673505065        6.5830674181        8.1841074366
 C       -14.8838321300        6.9737331599        7.2189273563
 C       -13.8539001394        6.4114155492        9.4259946233
 C       -15.0472403545        1.3801004833        4.7493452856
 C       -12.6857174069        0.6787306042        4.1080906447
 C       -14.5026984221        3.6046037795       -3.2741068966
 C       -15.4635919611        1.6064101187       -2.2633002045
 C        -8.2794647831       -0.2713601745       -1.6970527299
 C        -7.2181270568        1.9706940768       -0.9495025001
 C        -4.0358899593        2.7173805511       -6.5744994647
 C        -2.1386176695        1.7804561927       -4.9148289100
 C        -6.7462823088        6.6259819586       -4.5017699477
 C        -5.0110418002        7.9533699351       -3.3597730029
 H        -6.4091312129        9.2433583192       -1.2834750114
 H        -6.2911999057        7.7095713768       -0.2787696207
 H        -7.7334000538        8.5469470323       -0.5818950337
 H        -3.7583461614        5.6786204716       -1.2896690326
 H        -3.3017706494        5.8350191467       -2.9814745981
 H        -4.1432584910        2.9620890810       -2.1899227084
 H        -2.5687538746        3.5488431393       -2.3047005266
 H        -5.7124242032        0.0278851736       -5.8404091503
 H        -6.2522033948        1.7329667897       -5.8774973193
 H        -6.5509004093       -0.1813654277       -3.5937370303
 H        -7.5780066949       -0.0103829495       -4.9151999010
 H       -10.4033245173        0.5696224179       -0.1839958507
 H       -11.1521184801        0.4535737256       -1.9753287923
 H       -11.8073425020        3.0013245182       -0.6690216831
 H       -12.6349757655        1.6025597897        0.0758233329
 H       -15.7081648126        1.7951022889        0.2622860401
 H       -16.4246326373        3.2968403056        0.2179833443
 H       -15.8675326442        3.3908770187        2.5070886484
 H       -14.3149557950        3.6951971055        1.7915969540
 H       -14.9204293183        4.0480729720        5.0721694037
 H       -13.4444063422        5.0958954662        5.3126424825
 H       -12.3591931621        3.8548531627        6.6923836301
 H       -13.5755810836        2.5437830728        6.7145680845
 H       -10.3724625802        6.9259304906        7.4509827889
 H       -10.9493904445        5.6807425496        8.7485677844
 H       -11.4364272749        7.3537655307        8.8937252766
 H       -14.5668229470        7.2332030914        6.2368516974
 H       -15.2400003234        7.8642758465        7.8221360536
 H       -15.7970696952        6.3568253411        7.2294668961
 H       -13.0974022563        5.8337518942        9.9539304253
 H       -14.8015676413        6.1414126306        9.9616040327
 H       -13.7311697180        7.5149279392        9.7638080095
 H       -15.1883093090        0.2671264542        4.9044630827
 H       -15.8729506676        1.9541239937        4.4386557930
 H       -14.9980308711        1.7125011431        5.8213294745
 H       -11.8233303547        0.6815383665        3.3765682914
 H       -13.1317617364       -0.4189261036        4.0709010310
 H       -12.3945235381        0.6858981126        5.0988510646
 H       -14.7205848058        2.8130753978       -3.9526547546
 H       -13.6608871550        4.1959938953       -3.4814016481
 H       -15.4660364260        4.1861042177       -3.1911178879
 H       -15.4739390467        1.3076961358       -3.2627528123
 H       -16.5290769794        1.9257565480       -2.0674895178
 H       -15.3799664789        0.7201278906       -1.5765330018
 H        -7.5865432789       -0.5852548929       -0.8611312576
 H        -8.1839025694       -0.8450767732       -2.7343926009
 H        -9.2846430878       -0.6550774408       -1.4342075385
 H        -6.4981996930        2.2576755131       -1.7102987459
 H        -6.6968114146        1.1625919109       -0.3042415583
 H        -7.5488047825        2.9319898901       -0.5081288647
 H        -3.4630281494        3.5706386214       -6.8777871770
 H        -4.9901454026        3.1902552909       -6.4891946914
 H        -3.9915145401        1.9360478708       -7.2894972090
 H        -1.3276313624        2.4198660420       -4.9714690249
 H        -1.9322461000        0.9621904499       -5.5192924537
 H        -2.1185155399        1.4765801053       -3.8841303988
 H        -7.3360592098        7.5650872040       -4.8633849954
 H        -7.2998933946        5.7183835110       -4.6651324779
 H        -5.9298963787        6.5255316235       -5.3117929094
 H        -5.6993807598        8.7739791959       -3.5640783802
 H        -4.5308381964        7.7802327731       -4.2999758679
 H        -4.3696635722        8.2319007909       -2.5457942735
 Na       -8.5535017623        4.3807592926       -2.4881701541
