117

 C        -6.3181646097        8.0768733801       -1.1430187510
 C        -6.8142371255        7.0806256404       -2.1479020824
 O        -8.0137498901        6.7860638430       -2.1827963453
 C        -5.7978834062        6.6504977139       -3.1678000762
 C        -5.2773282808        5.2438025710       -2.6637924408
 O        -5.9926733890        4.2641707132       -2.4898345749
 C        -3.8807230527        5.1204616688       -2.1577100422
 C        -3.1012131578        3.9074184963       -2.9440333299
 C        -3.6701402772        3.7314850739       -4.3384008354
 O        -4.2583211878        4.6553488936       -4.8058320761
 C        -3.6369852510        2.3195325967       -5.0952745724
 C        -4.7101349228        1.2815272715       -4.3245860448
 O        -4.4327473100        0.9686902125       -3.1861343128
 C        -5.9213413458        0.9252079818       -4.9454083376
 C        -6.9371844011        0.2535430730       -4.0395114329
 C        -7.8433889961        1.1971637541       -3.3327523029
 O        -8.0894407761        2.2617434130       -3.7695476727
 C        -8.3507620938        1.0023876237       -1.7652513842
 C        -9.7845471253        1.7768886860       -1.4422149366
 O        -9.8529570578        2.9802375225       -1.5793730673
 C       -10.9387739099        0.8461514033       -1.0256816800
 C       -12.2380586202        1.5533567029       -0.8087613609
 C       -13.2446308198        1.4497576155       -2.0058684521
 O       -12.9722432555        0.8894186811       -3.0699981041
 C       -14.6738105951        2.4347888071       -1.8955353236
 C       -14.5969840048        3.2310572383       -0.6258208623
 O       -13.8848123195        4.2131788126       -0.4402747858
 C       -15.5263590662        3.1062124320        0.4938338154
 C       -14.7725331745        3.3007582991        1.8908207934
 C       -14.3516277715        1.9534197084        2.4585069200
 O       -14.0653667447        1.0949901926        1.7016334412
 C       -13.8742639934        1.9030532080        3.9750634486
 C       -13.2408312325        3.4582760980        4.2795712338
 O       -12.0774454015        3.7061532370        3.8556303598
 C       -13.9811685259        4.3318533303        5.2295240992
 C       -13.5554169158        3.9715025937        6.6354097614
 C       -14.4013304283        5.0801692534        7.6332528611
 O       -15.3336865079        4.5783547609        8.2058628346
 C       -13.9549688057        6.5209444458        7.8684646427
 C       -12.5336661412        6.7135944091        7.3229800955
 O       -12.4215628809        7.0835101771        6.2213140153
 C       -11.3712062900        6.0655430227        8.2203790781
 C       -15.0444386200        7.4482115662        7.2879834719
 C       -14.0698853959        6.6587317578        9.3741163186
 C       -15.0962580568        1.4420343776        4.7808084915
 C       -12.6372768814        0.8640654764        4.0667282897
 C       -14.4087019684        3.4393319533       -2.9719029882
 C       -15.9591310834        1.6876009714       -2.2440935269
 C        -8.1771358153       -0.5664011290       -1.3646381476
 C        -7.3196909924        1.8671110619       -0.9746447705
 C        -3.9103670902        2.5806872538       -6.5501874106
 C        -2.3127664602        1.6524753420       -4.9125610750
 C        -6.5536995924        6.2991118723       -4.5419890018
 C        -4.6853477343        7.7143486162       -3.6078863214
 H        -6.5487707905        9.1178302067       -1.6721054229
 H        -5.2326970979        7.9960643446       -0.8949530022
 H        -6.8844831875        8.1882291927       -0.3120167116
 H        -3.8827138116        4.8960141282       -1.0926275645
 H        -3.4289845334        6.1348456073       -2.2765691118
 H        -3.2944725955        2.9540487015       -2.3445866422
 H        -1.9756512141        3.9625820422       -3.0102396953
 H        -5.7189858336        0.2869010068       -5.8523455048
 H        -6.2954374987        1.8298471764       -5.3469131171
 H        -6.4565190953       -0.4815904733       -3.4290744451
 H        -7.6435680244       -0.3433294334       -4.6388175144
 H       -10.6340301898        0.5538764735        0.0061179105
 H       -11.0447822126        0.0810642578       -1.7310491806
 H       -12.0348269995        2.6506295220       -0.6803362150
 H       -12.7636471926        1.3198514610        0.1589710696
 H       -16.3105664793        2.2570847355        0.6192253863
 H       -16.1694881273        4.0920253494        0.2234000660
 H       -15.5645267944        3.9737328212        2.3915759709
 H       -13.8178217903        3.8684493434        1.8267459258
 H       -15.0324802929        4.1696884229        5.0932561820
 H       -13.7375522685        5.3846212060        5.0481197098
 H       -12.4558624792        3.9943613780        6.6020251625
 H       -13.7841670236        2.9605552132        6.8330165371
 H       -10.4789469237        5.7972069468        7.5679657693
 H       -11.9331071758        5.2102470600        8.6421830459
 H       -11.1334025416        6.7140954946        8.9974107421
 H       -15.9503300513        6.8847714357        7.2953369793
 H       -14.7782079099        7.7847435508        6.2868719241
 H       -15.0704157073        8.4107925081        7.8045225342
 H       -13.5440419013        5.8437829011        9.7384917487
 H       -15.0164417839        6.6235895579        9.8220612601
 H       -13.7266391448        7.5915618765        9.7856422664
 H       -15.6120103790        0.5384028823        4.4840947190
 H       -15.8635737485        2.2396204036        4.7083809246
 H       -14.9302392050        1.2755600178        5.8573168939
 H       -11.7508245156        1.3265336128        3.6343519385
 H       -12.7316762513       -0.0226576963        3.4003474428
 H       -12.5793242277        0.4091252605        4.9292549342
 H       -14.1080313368        2.8646470498       -3.8530627188
 H       -13.7308062323        4.1741483909       -2.5213470266
 H       -15.3623220068        3.8721332936       -3.1606484849
 H       -16.5453956899        2.3343358575       -2.8372019476
 H       -16.5635542652        1.2790331436       -1.4639217304
 H       -15.7915466531        0.7773994001       -2.8328658865
 H        -7.2100031008       -0.7468959504       -1.0609566566
 H        -8.8007216649       -1.2023301146       -2.0220337317
 H        -8.6290435729       -0.8689198926       -0.4077169895
 H        -6.3754597405        1.3859826230       -0.7909436728
 H        -7.8384554892        2.1697279855       -0.0651550824
 H        -7.3116411255        2.7575674578       -1.5213857728
 H        -3.1345041377        3.0023757319       -7.1309261213
 H        -4.8309973045        3.2393487642       -6.7250555914
 H        -4.2174229805        1.5326455822       -6.8629571595
 H        -1.4394436454        2.0525260687       -5.4297859831
 H        -2.4073287379        0.5399046894       -5.0876299098
 H        -2.0071196393        1.8130190929       -3.8648736506
 H        -7.4030542521        7.0106180229       -4.5729688632
 H        -6.9311277244        5.3726339686       -4.5882695382
 H        -5.9933941094        6.2727315969       -5.4244245369
 H        -5.1646780145        8.5802404660       -4.1358290959
 H        -4.0781250949        7.2113520167       -4.2881293983
 H        -4.1845876100        8.0631717585       -2.6553525674
 Na       -8.3946110535        4.4513986393       -2.9164801270
