117

 C        -6.1392243432        8.1778552324       -1.3628741577
 C        -6.6276271658        7.1129633621       -2.3337004371
 O        -7.6525380828        6.4750339726       -2.2880363862
 C        -5.6290228065        6.4925995031       -3.3597512702
 C        -5.1413520899        5.1416648677       -2.7810037957
 O        -6.0527967403        4.3098922576       -2.4659825257
 C        -3.6873019161        5.0057523451       -2.3466998545
 C        -3.1467736830        3.7573944380       -3.0703880303
 C        -3.8125161035        3.5703277508       -4.4581414514
 O        -4.3511790127        4.4779456955       -5.0470994937
 C        -3.6143102701        2.1200673269       -5.1002418200
 C        -4.6804776545        1.2170258314       -4.1157868588
 O        -4.3198354942        1.1430546941       -2.9138808575
 C        -6.0404047567        0.9416445229       -4.7001209088
 C        -6.9053175744        0.2134725155       -3.7309984215
 C        -7.9188804511        1.0978685627       -3.0679016536
 O        -8.4270720564        2.0296340813       -3.6915142457
 C        -8.3806437216        0.7597408334       -1.6182331915
 C        -9.7329562948        1.6946115785       -1.4151250028
 O        -9.8410894799        2.8217339960       -1.8691070031
 C       -11.0419156776        0.8637176679       -1.3180256076
 C       -12.2020867540        1.8013017114       -1.0229266480
 C       -13.3003699254        1.5117685413       -1.9771003257
 O       -13.3225864526        0.4397029655       -2.6158309766
 C       -14.4692333135        2.3695862895       -2.0295747473
 C       -14.4197195534        3.3845818507       -0.6915485561
 O       -13.6550391671        4.3138558953       -0.4338507433
 C       -15.7135157263        3.0763649927        0.2944229178
 C       -15.3324634019        3.3006845976        1.7770734461
 C       -14.3585113191        2.1351544965        2.2547032689
 O       -13.9496535126        1.3041755095        1.5145075651
 C       -13.7920700209        2.1373170492        3.8802183992
 C       -13.0376669056        3.5162418629        4.5634774906
 O       -11.8192008868        3.7487377288        4.2742301469
 C       -13.9963773292        4.4687127024        5.1266440218
 C       -13.9825753646        4.1906932582        6.6770784620
 C       -14.7331985821        5.3018783135        7.6425305334
 O       -15.7366803958        4.9859839418        8.2404714285
 C       -14.1222565391        6.6668562012        7.8828409148
 C       -12.5367645341        6.8303801874        7.4566190628
 O       -12.2880979827        7.7075616690        6.6686086073
 C       -11.3785863009        6.1404804942        8.0781121903
 C       -14.9088960430        7.6976867529        7.0586047515
 C       -14.0768254043        7.1273199989        9.3425000791
 C       -15.0405741016        1.7507526177        4.7409437438
 C       -12.7066542261        1.1079598105        4.1251309934
 C       -14.6052449501        3.3976780921       -3.1627519071
 C       -15.7772377144        1.4818181561       -2.0830312837
 C        -8.4175855960       -0.6988149271       -1.2663752094
 C        -7.3473999350        1.4972324053       -0.6720811542
 C        -3.9065738164        2.0736479292       -6.6231592228
 C        -2.1593693178        1.4687901863       -4.9436855981
 C        -6.3916736257        6.3378659573       -4.6387407081
 C        -4.4220039221        7.4985814954       -3.6879232773
 H        -5.9220072416        9.0417467093       -2.0699311042
 H        -5.1144159544        7.9266651662       -1.0400161315
 H        -6.6884524207        8.4775602421       -0.5917316751
 H        -3.6792235858        4.8019238145       -1.2666814928
 H        -3.1333087291        5.9330171280       -2.4600484255
 H        -3.2792019653        2.9234344846       -2.4488445034
 H        -2.0112424351        3.8540562629       -3.2233950402
 H        -5.7708025992        0.2877459702       -5.5981885781
 H        -6.4776235813        1.7860384446       -5.1788123763
 H        -6.1791340347       -0.1696775235       -2.9555064025
 H        -7.4658931677       -0.7307406759       -4.1004209533
 H       -11.1226250643        0.1697560133       -0.5517919884
 H       -11.2226840836        0.4912459913       -2.4242422959
 H       -12.0380108404        2.7812490724       -0.7389566395
 H       -12.5619844776        1.4236452640       -0.0276746323
 H       -15.9599035037        2.0193096782        0.1327532819
 H       -16.6342526147        3.6212858159       -0.0773488766
 H       -16.1649255812        3.4277729601        2.4511533914
 H       -15.0300320488        4.3230134058        1.7022694469
 H       -15.0185536422        4.4533306682        4.7897684334
 H       -13.5982691764        5.5591961209        4.9441544312
 H       -12.8638840821        4.0939109984        6.9454023508
 H       -14.4326977440        3.2439874412        7.0035864445
 H       -10.9761214201        5.6789667534        7.1765532945
 H       -11.6869327501        5.3232718961        8.7506168925
 H       -10.7557638408        6.8280692230        8.4376315535
 H       -14.9573737432        8.6689616481        7.6079676452
 H       -15.8704848413        7.4256755294        6.6695959769
 H       -14.3022216520        7.7202889437        6.1237898421
 H       -13.0848904835        6.7911808561        9.7853896143
 H       -14.8319993605        6.7132286391       10.0684748515
 H       -14.2295122449        8.2361581258        9.4573320861
 H       -15.4705787170        0.8703137670        4.3773307201
 H       -15.9947267967        2.3639233762        4.7504748013
 H       -14.7410387039        1.5753445117        5.7638268818
 H       -11.9151594954        1.3641244447        3.3019573531
 H       -12.8615871787        0.0492997810        3.9913202286
 H       -12.2846832622        1.1241709443        5.0662235153
 H       -15.2527344394        2.9651413315       -4.0014305661
 H       -13.5048393447        3.6664607326       -3.3817972388
 H       -14.9872409653        4.2612848609       -2.7511708114
 H       -16.7520298428        1.9930413982       -1.8289674521
 H       -15.6440828561        0.5634865545       -1.4970044348
 H       -15.9811047900        1.1335380046       -3.1034897528
 H        -7.6965566882       -1.0583441829       -1.9044195307
 H        -9.3632530458       -1.1893199363       -1.4190185400
 H        -7.8776265291       -1.1572958349       -0.4289103503
 H        -6.3752659707        1.0092349403       -1.0171019267
 H        -7.5701029187        1.0773666339        0.2787766438
 H        -7.4579821517        2.5672616552       -0.5322194058
 H        -3.2710560031        2.7609373861       -6.9856162399
 H        -4.9443227191        2.2279331598       -6.9275197397
 H        -3.6303671662        1.0968662245       -7.0142954917
 H        -1.4374235729        2.2941365730       -4.6298557880
 H        -1.9121724833        0.8027874316       -5.9047194473
 H        -2.1535216402        0.7113668794       -4.0823498808
 H        -7.1131396133        7.2696606222       -4.7537969987
 H        -7.0664379227        5.5470601311       -4.5631218324
 H        -5.8317731863        5.9962185177       -5.4837173750
 H        -4.9543572652        8.2819312125       -4.2381448987
 H        -3.7953009581        6.9937213564       -4.3130077976
 H        -3.8443857250        7.8719625620       -2.7946162190
 Na       -8.3458125849        4.2529338926       -2.7757465253
