117

 C        -6.3084580258        8.3609782385       -1.6070611475
 C        -6.6368944314        7.0255756946       -2.3207179248
 O        -7.6163795872        6.3576148887       -1.9767381863
 C        -5.5642966658        6.5188578170       -3.5482075621
 C        -5.0829236648        5.0598783942       -3.1111039507
 O        -5.8371059089        4.2449525201       -2.6720229229
 C        -3.6191633086        4.9822144492       -2.5706570484
 C        -2.9612692149        3.6958911137       -3.1229259550
 C        -3.5593682851        3.3005568242       -4.4819194236
 O        -4.2197222895        4.1451179521       -5.1421703256
 C        -3.4903567636        1.8191671121       -5.0806889210
 C        -4.4497797083        1.1006107885       -4.1493773798
 O        -4.3115104214        0.9287649219       -2.9583841450
 C        -5.8901239480        0.6286193660       -4.8133248979
 C        -6.7823049868        0.0348552941       -3.5941902901
 C        -7.7476476750        1.0469329372       -3.0937811306
 O        -8.0175408083        2.0057077179       -3.8660976331
 C        -8.3258224312        0.7799712285       -1.6835968922
 C        -9.7009082351        1.5419438618       -1.3393752252
 O        -9.7054022197        2.7907611978       -1.3385174932
 C       -11.0006112241        0.8371862435       -1.0407563337
 C       -12.1802531993        1.8372906068       -1.2452365385
 C       -13.4763274059        1.4706439606       -2.0468638347
 O       -13.5448721445        0.3633856286       -2.4484943357
 C       -14.7364243963        2.3506188705       -2.0488740452
 C       -14.7267010074        3.1409495586       -0.6599799764
 O       -13.7986140537        3.9508750681       -0.5688482005
 C       -15.7483052841        3.1290469778        0.5593115043
 C       -15.2653754722        3.4087329279        1.9681207332
 C       -14.2491684863        2.4514228664        2.3682190200
 O       -13.6831973179        1.6212646111        1.6015793938
 C       -13.8087078640        2.3372103379        3.9060095251
 C       -13.2242756769        3.5684178383        4.5241839631
 O       -12.0705034533        3.7135329027        4.4393161763
 C       -13.9714579882        4.8141735708        5.3491254181
 C       -14.0383690898        4.3437683567        6.7992869349
 C       -14.6710632621        5.3914375155        7.6324115755
 O       -15.7927297307        5.3741791026        8.1868220986
 C       -14.0706272086        6.8982570434        7.7495843447
 C       -12.5349590134        7.1682878690        7.4940804487
 O       -12.0856860843        8.0780729981        6.7325306246
 C       -11.6553495890        6.0508637627        8.0242084731
 C       -14.9243297897        7.8205901173        6.8609999610
 C       -14.3476919402        7.2280876688        9.2368125661
 C       -15.0750829138        1.9033436575        4.6660983365
 C       -12.7532759540        1.1655949008        3.8527413260
 C       -14.6811325474        3.5740845924       -3.1457813302
 C       -16.0603996396        1.4699208095       -2.2542223704
 C        -8.6574806210       -0.6985758526       -1.3958396658
 C        -7.3396620533        1.3823092253       -0.7226531295
 C        -4.0386466902        1.8649278780       -6.5951708932
 C        -2.1505870737        1.2644142752       -4.8095691728
 C        -6.3322641799        6.3017539297       -4.8455438664
 C        -4.4603160966        7.5616694417       -3.7442305024
 H        -5.8237642218        9.1452244220       -2.1055159189
 H        -5.5998857011        8.0364660951       -0.8142812797
 H        -7.2406366278        8.7119490939       -0.9465756984
 H        -3.7675249492        4.9988105425       -1.4735701876
 H        -2.9703934974        5.8555696110       -2.7449811852
 H        -3.2693176236        2.7572194058       -2.5399910465
 H        -1.8815810807        3.7947763882       -3.0762385895
 H        -5.8217830249       -0.1412333932       -5.5101902798
 H        -6.4854076803        1.3877883096       -5.3816990981
 H        -6.1448374153       -0.2479338392       -2.7497640679
 H        -7.2130353965       -0.8767978728       -3.9152871056
 H       -10.8981368144        0.5010817305        0.0513485489
 H       -11.2353855188        0.1203360704       -1.7372722492
 H       -11.7049161432        2.8044279371       -1.6900037175
 H       -12.4230486446        2.3379589803       -0.3290361293
 H       -16.2752549661        2.1762326539        0.6661299396
 H       -16.5173852479        3.7785371685        0.0807332589
 H       -16.1161443770        3.4964778765        2.6941680583
 H       -14.8249768761        4.4640786924        2.0580889198
 H       -15.0463533299        4.9044232217        5.1208680563
 H       -13.5350146759        5.7432039208        5.2549445962
 H       -13.0794213759        4.0525348854        7.0992148033
 H       -14.7236326450        3.4789187305        7.0013665271
 H       -11.4548955543        5.3877814464        7.2022584163
 H       -12.2139663611        5.4653298238        8.7393287348
 H       -10.6901772661        6.5315007123        8.4642798068
 H       -14.2156484190        8.5781140968        6.4924695785
 H       -15.5173496441        8.4389573963        7.5734185341
 H       -15.6517399251        7.4053294183        6.1717940329
 H       -14.0473816513        6.5168072368        9.9827985451
 H       -15.4104019995        7.3981075745        9.3911827229
 H       -13.9131252470        8.1750471997        9.4972842074
 H       -15.6854968450        1.1233735778        4.2166697865
 H       -15.8519113175        2.6234473117        4.7853954715
 H       -14.8102527972        1.7012106535        5.6782994268
 H       -11.8304090290        1.3227168240        3.3493329429
 H       -13.2249587793        0.2880156633        3.5006686917
 H       -12.3390508888        0.8790034624        4.9175647150
 H       -14.4877901983        3.1812329733       -4.1199874381
 H       -14.0460526980        4.3616220766       -2.7798819869
 H       -15.7215975809        3.9767339865       -3.0422708923
 H       -16.8123494925        2.0856435567       -2.7259898348
 H       -16.5073335215        1.2707846250       -1.2715046190
 H       -16.0327832330        0.5365275752       -2.8414585475
 H        -7.9853671237       -1.4778212172       -0.8728194785
 H        -9.0742054614       -1.1699404102       -2.3028597565
 H        -9.4175942512       -0.6882653612       -0.5912383676
 H        -6.3873840255        1.2693981225       -1.1557977683
 H        -7.3539048658        0.9264162995        0.2512926204
 H        -7.6212038979        2.4037308569       -0.5484864592
 H        -3.2479310673        2.4856255781       -7.1861684220
 H        -4.9832465749        2.3869012568       -6.4692427384
 H        -4.2214511895        0.9252257404       -7.1408991085
 H        -1.4100717582        2.0854454182       -4.9771027095
 H        -1.9819547199        0.4059910488       -5.3640754353
 H        -2.1052693560        0.9880703832       -3.8431377067
 H        -6.8763372576        7.0912114573       -5.1871536479
 H        -7.0969912253        5.4733620133       -4.8296622975
 H        -5.5810275386        5.9976398844       -5.5495330465
 H        -4.9677603709        8.4476505679       -4.0890785215
 H        -3.7484482162        7.0358767086       -4.5024365742
 H        -3.8867336392        7.6902190806       -2.8650087651
 Na       -8.2345696406        4.1634959420       -2.4589033912
