117

 C        -4.4390955367       11.3836336305        1.9896489246
 C        -5.7667833460       10.7003740530        2.4421979133
 O        -6.8152271902       10.8099844237        1.8431368253
 C        -5.6553255394        9.8914859033        3.7446845481
 C        -5.1933790696        8.3240846580        3.3781558989
 O        -4.3438949139        7.7944490179        3.9505672640
 C        -6.0207442426        7.6400180781        2.2835541956
 C        -5.8656536472        6.0827226992        1.9643060671
 C        -6.9138072260        5.5844299437        0.9745651864
 O        -8.0741013403        5.7583345019        1.2112384536
 C        -6.5045091087        4.5682487877       -0.2916520192
 C        -6.1310071425        3.0344432707        0.2389574791
 O        -4.9576062248        2.8208682720        0.3814635553
 C        -7.3296306814        2.2230398334        0.7089976705
 C        -7.4675096214        0.8145963435        0.0557605042
 C        -8.6394101301       -0.0022367668        0.6530410250
 O        -9.5741136510       -0.3691633728       -0.0218913499
 C        -8.4951472697       -0.5729399857        2.0794654931
 C        -9.1425129395        0.5099918871        3.0653680622
 O        -8.6114372126        1.5222263232        3.4123684790
 C       -10.5884683654        0.3894166059        3.3995668287
 C       -11.3302158118        1.7295762419        3.2677924030
 C       -11.1967693942        2.3249389126        1.9151986749
 O       -10.3550619692        2.0069427283        1.1135825642
 C       -12.1874495109        3.5438804559        1.5381124225
 C       -13.1018303315        2.8943500624        0.5703296928
 O       -12.7624624634        2.1881116008       -0.4047536893
 C       -14.6784708336        2.8658303826        0.6806463277
 C       -15.4515335127        3.0456696637       -0.6424100550
 C       -15.0323752593        4.3407744775       -1.4849370110
 O       -14.7748049454        5.4058226235       -0.8721069246
 C       -15.1480959373        4.3149235590       -3.0172450509
 C       -14.0923464173        3.4241406088       -3.5715942635
 O       -14.4152573584        2.4115775013       -4.1319039623
 C       -12.6577309500        3.6927757497       -3.3095487508
 C       -11.6363198851        3.1176745976       -4.1660754779
 C       -10.4486533663        2.3299649379       -3.5937880365
 O       -10.0040507106        2.6325759819       -2.5077076495
 C       -10.0885998495        1.0795527378       -4.4567316258
 C       -11.2209446368        0.0757507801       -4.1237436057
 O       -11.3010100127       -0.2688719768       -2.9390540334
 C       -12.1658040658       -0.5361750051       -5.1160990491
 C        -9.9924091102        1.5287646588       -5.9857884594
 C        -8.6528110751        0.5262199428       -4.0634467471
 C       -16.6289726036        3.9256030091       -3.2718242914
 C       -14.9614141372        5.8088295778       -3.4879871175
 C       -12.9576032015        4.1090465626        2.8067282912
 C       -11.2521123344        4.6113529589        0.8821093348
 C        -9.1857732375       -2.0151176822        2.0314942016
 C        -7.0669378662       -0.7852252812        2.4759401405
 C        -7.7353847490        4.6220178686       -1.2357261000
 C        -5.2266336720        5.1598061090       -0.9182247801
 C        -4.6215098593       10.4659580503        4.7779089087
 C        -6.9911320545        9.7814008643        4.4485340683
 H        -4.5656131675       12.3962380548        2.0638968225
 H        -4.3807126447       11.3542435530        0.8941288897
 H        -3.5000230516       11.1518305306        2.4791980798
 H        -5.7525911528        8.2399082863        1.4416774853
 H        -6.9733052382        7.8846326138        2.6108032995
 H        -6.1461446581        5.4716613878        2.8835320373
 H        -4.8660658990        5.7999879693        1.5596240808
 H        -8.1244501788        2.8711218874        0.5361970967
 H        -7.1468971977        2.2232441953        1.7929036880
 H        -6.5107350295        0.3036395541       -0.0669106789
 H        -7.7617813925        1.0150019531       -0.9278121760
 H       -10.6440811611        0.0882350663        4.5071499037
 H       -11.1221108265       -0.3393268898        2.7426283577
 H       -10.9504927707        2.3966896366        4.0385258944
 H       -12.4518704111        1.6575464008        3.5002581164
 H       -15.0972949230        3.6214472804        1.3699738578
 H       -14.9387465751        1.8625880698        1.0086397350
 H       -16.5750706885        3.0700694416       -0.4575043751
 H       -15.3225620231        2.1207970122       -1.2725461444
 H       -12.3737892020        3.4846775567       -2.2483615005
 H       -12.6300325192        4.7712637780       -3.3491817303
 H       -11.2070534631        3.7855689646       -4.8439218877
 H       -12.2152653651        2.4062950922       -4.7442930288
 H       -11.8229923838       -0.7201384512       -6.0934700369
 H       -13.0146451068        0.2126266520       -5.1704736611
 H       -12.5605585653       -1.3219537913       -4.5013022921
 H        -9.1816432630        2.2963847958       -6.1824454430
 H       -10.9641494443        1.7597948561       -6.3136788930
 H        -9.7578788067        0.8209252660       -6.7407389093
 H        -8.7885431279       -0.0966658436       -3.1823695767
 H        -8.0368722898        1.4374230471       -3.7537604969
 H        -8.1068969417       -0.0781496859       -4.8130119996
 H       -16.9201580159        3.0306690685       -2.6579195259
 H       -16.7552523302        3.6880553395       -4.3704824731
 H       -17.2752056805        4.6911666041       -2.9660524762
 H       -15.1638648766        5.9806875442       -4.5810854214
 H       -13.8705880534        6.1290054348       -3.2849065997
 H       -15.5147494790        6.4282345346       -2.8570442298
 H       -12.2988414496        4.5008661531        3.6118934159
 H       -13.5624328475        3.2687484868        3.2777234809
 H       -13.4235660713        5.0410468276        2.5436985620
 H       -10.8928359573        5.3802681002        1.5985835393
 H       -11.8110977252        5.1723550981        0.1418522971
 H       -10.3523464019        4.1642943869        0.3522314177
 H        -9.4492278878       -2.4367746580        3.0378661083
 H        -8.5173925157       -2.5655234879        1.4065446242
 H       -10.1656809743       -1.9381304368        1.5430591625
 H        -6.5113211895       -1.2071037746        1.6084190148
 H        -6.8798515016       -1.3749409536        3.3501785342
 H        -6.4943461632        0.1808305986        2.7483038149
 H        -7.6222661563        5.3020993705       -2.0593036338
 H        -8.6747416978        4.9926958870       -0.6974756248
 H        -8.0115427731        3.6878880650       -1.6971459218
 H        -5.3885315082        6.0663040306       -1.4982104358
 H        -4.8004632986        4.4304580502       -1.6203303671
 H        -4.5045406757        5.2498284273       -0.1353226971
 H        -3.5898042893       10.5177669894        4.4536119541
 H        -4.4757956694        9.8477200372        5.7107146537
 H        -4.8893248882       11.4508967770        5.1281281815
 H        -7.7373449175        9.3123568135        3.8034562778
 H        -7.3512411367       10.7110157974        4.8262788291
 H        -6.8540857020        9.0464169722        5.2620394135
 Na      -10.7301769974        1.1696103735       -1.1041989507
