117

 C        -6.8283376533        8.3896383126       -2.0527476172
 C        -6.5431169074        6.9444961547       -2.3211991481
 O        -7.3011744669        6.1806457297       -1.7372346510
 C        -5.7132341936        6.4479933703       -3.5118870217
 C        -4.9749930686        5.1387220810       -3.1030515341
 O        -5.4702027963        4.2020317476       -2.4954353382
 C        -3.4360291128        4.9781987692       -3.4302020961
 C        -3.0266761136        3.5015947510       -3.4148407272
 C        -3.4329369576        2.7568549792       -4.8150369480
 O        -3.8482083444        3.5844543287       -5.6118129020
 C        -3.4244473401        1.2912913949       -5.0392732293
 C        -4.5926476125        0.5956343444       -4.0775919516
 O        -4.4118356746        0.2512858077       -2.8972750575
 C        -5.9464636272        0.2785646729       -4.7211026149
 C        -6.9018556855       -0.3222565467       -3.7192577799
 C        -7.5316000430        0.7629432430       -2.9459919639
 O        -7.4071186958        1.9049844798       -3.3261246998
 C        -8.3748510148        0.4648700668       -1.6785313836
 C        -9.5528747526        1.5661047264       -1.7042359884
 O        -9.4654706541        2.7206256036       -1.4644205805
 C       -10.9795998517        1.1276306481       -1.9171253125
 C       -12.1197753219        2.1375011937       -1.5265280471
 C       -13.4817776264        1.4989849389       -1.6513356055
 O       -13.6508103697        0.2735343680       -1.5434110180
 C       -14.7541417770        2.4767827868       -1.8449624559
 C       -14.8808895566        3.5010073321       -0.5507397626
 O       -14.5671853911        4.6750490101       -0.6860721652
 C       -15.8377570868        2.9183513463        0.4811316545
 C       -15.4649672646        3.5110875810        1.9791663923
 C       -14.1550303673        2.9151855577        2.5068956434
 O       -13.2804678528        2.5360113970        1.7765668465
 C       -13.9773251238        2.5365172148        4.0150920571
 C       -13.3817734266        3.8538523126        4.5787276523
 O       -12.1393887167        3.9129839465        4.5790221508
 C       -14.2734239575        4.9661880500        5.0721636337
 C       -14.3006522224        4.7371483853        6.6524289821
 C       -14.9499812337        5.9915403106        7.4624722868
 O       -15.9445344802        5.8407856480        8.0714012673
 C       -14.2213560405        7.3122770665        7.5120712886
 C       -12.5772023238        7.3606007204        7.4480503141
 O       -11.9111043320        8.0651799151        6.7684968944
 C       -11.9054609698        6.4549449636        8.4472059243
 C       -14.8789606606        8.2472229286        6.3715998274
 C       -14.6317415219        7.9695647513        8.9761215566
 C       -15.2168791960        2.1228098573        4.7905246542
 C       -12.9266079087        1.4121334293        4.1930269190
 C       -14.8673044671        3.4404936597       -3.1188183771
 C       -15.8737024960        1.4119809239       -1.8060086765
 C        -8.6750241745       -0.9413753637       -1.4641982642
 C        -7.4800599652        0.8587007313       -0.4927740302
 C        -3.6326932102        0.9173145141       -6.5603308265
 C        -1.9736920365        0.7300150129       -4.5436983999
 C        -6.5000562097        6.0151273091       -4.7230687196
 C        -4.6679924147        7.6843021559       -4.0077430801
 H        -7.6124656825        8.7373027385       -2.7811905093
 H        -5.9321098951        8.9805276914       -2.2342500396
 H        -7.0695436514        8.5684049052       -1.0239543017
 H        -2.9124097648        5.2832397308       -2.4865942468
 H        -3.0734357819        5.5976431421       -4.2557138703
 H        -3.3121149177        3.1647143069       -2.4790077644
 H        -1.9140121878        3.5407332404       -3.3600474176
 H        -5.7599496720       -0.3520389535       -5.6064707780
 H        -6.3402221807        1.2620157069       -5.0266741162
 H        -6.4307826424       -1.0719613428       -3.1497581434
 H        -7.8068923931       -0.7777993948       -4.0941313875
 H       -11.3690753492        0.2264606942       -1.4448231436
 H       -10.9390233016        0.7939780429       -3.0066174974
 H       -12.0721144155        3.1615088029       -1.8865549291
 H       -12.0711892855        2.4616005068       -0.4352234635
 H       -15.7236150950        1.8763993173        0.4510833363
 H       -16.7761574484        3.2107310796        0.3176399862
 H       -16.3050120799        3.1793597784        2.6159718664
 H       -15.5584749399        4.6601829219        1.9173571593
 H       -15.2223648213        4.8216088959        4.7045348612
 H       -13.8038926954        5.8397427782        4.5849966328
 H       -13.2616466863        4.6774708378        7.0341634686
 H       -14.8086467361        3.8267541218        6.8975058343
 H       -11.0517334056        6.0151316979        7.8531791213
 H       -12.5080673383        5.5616907494        8.7754115197
 H       -11.5418691768        7.0556963000        9.2222830190
 H       -15.9013612515        7.7761247474        6.2560312124
 H       -14.2513443782        8.1729238531        5.4966875790
 H       -15.0257647897        9.3194607719        6.5938288662
 H       -13.9983578363        7.5336204816        9.7708453126
 H       -15.6408780567        7.6228693389        9.2045371359
 H       -14.4849813599        9.0404817874        9.1194194136
 H       -15.7406160828        1.3454583345        4.3541039562
 H       -16.0016695751        2.8444879606        5.0626172672
 H       -14.9985174930        1.5696640937        5.6840754404
 H       -11.9604864958        1.6211554103        3.6741179143
 H       -13.3102168044        0.4172249831        3.6597879964
 H       -12.4575128564        1.2870364947        5.1171126284
 H       -15.1568663845        2.8527717845       -3.9747998806
 H       -13.8514572814        3.7755942676       -3.2786129450
 H       -15.6231486912        4.2188455137       -2.9102052877
 H       -16.9194408634        1.8205090749       -1.6029688615
 H       -15.7330271497        0.5654728296       -1.1366812410
 H       -15.9062841646        0.9944750993       -2.8053549587
 H        -7.7272829163       -1.4048484617       -1.3691947036
 H        -9.0163401430       -1.6746399956       -2.3302116639
 H        -9.3538268925       -1.0445881702       -0.5850830381
 H        -6.7216498906        0.0787599460       -0.5430653380
 H        -8.0368611323        0.6752656435        0.3757455532
 H        -6.9987563175        1.7855682962       -0.5894988860
 H        -2.8327545702        1.4114812141       -7.0551098476
 H        -4.5642747620        1.3238061526       -7.0949816209
 H        -3.4157194921       -0.2004752203       -6.6885127439
 H        -1.2957660408        1.3528199597       -4.8444813366
 H        -1.7473102122       -0.1122533780       -5.0166373046
 H        -2.0713935516        0.5723294225       -3.4591884342
 H        -7.3256459126        6.6428030173       -5.1756443665
 H        -6.9514035337        5.1496767923       -4.4183718719
 H        -5.8222670105        5.9085815799       -5.5617677505
 H        -5.4073970343        8.4873758023       -4.2461941519
 H        -4.1902136671        7.4117078557       -4.8784625981
 H        -4.0110574951        8.0062067431       -3.1348785949
 Na       -7.5860436460        3.8956337554       -1.9692281442
