117

 C        -6.7961075501        8.4547550451       -2.1192279960
 C        -6.6604464181        6.8932793048       -2.3452786538
 O        -7.2227620163        6.1317434795       -1.6395943634
 C        -5.6922644224        6.3183058670       -3.5256928807
 C        -4.8300643043        5.1656227619       -3.0704465177
 O        -5.3628593901        4.3177452166       -2.3755544389
 C        -3.3516786440        4.9833848112       -3.5709154010
 C        -2.9846801165        3.4354916900       -3.5682495663
 C        -3.5016125527        2.8183957687       -4.8790806189
 O        -3.8729757189        3.3887556342       -5.8104576746
 C        -3.3472708800        1.1308866140       -4.9293272001
 C        -4.4978834667        0.5341985776       -4.1656586251
 O        -4.4900610884        0.2724667293       -2.9666937625
 C        -5.9731762001        0.1673653439       -4.8484741280
 C        -6.8891082363       -0.4181363248       -3.7048629429
 C        -7.5968069757        0.8151420600       -2.9302683557
 O        -7.2939010423        1.9526401589       -3.2491998754
 C        -8.3929144546        0.3606662400       -1.5130343988
 C        -9.7040316136        1.5138446674       -1.6706735895
 O        -9.3423896046        2.6623427847       -1.6340499017
 C       -11.1001394360        1.0753289412       -2.0690187936
 C       -11.9933345588        2.2381168230       -1.5774633523
 C       -13.4190608018        1.7193031817       -1.6281221428
 O       -13.5372602180        0.5837368335       -1.2809677249
 C       -14.8547083816        2.4567981685       -1.8745434954
 C       -15.0581226130        3.4582050265       -0.5913087190
 O       -14.5540834825        4.4991033331       -0.6702129349
 C       -15.8090918401        2.9380730678        0.7388733561
 C       -15.4265490905        3.6278510950        2.0921171876
 C       -14.1675477485        2.8613384869        2.4957312674
 O       -13.3252433684        2.7370893559        1.6769514648
 C       -13.9547685989        2.5504673179        4.0667926320
 C       -13.3037155653        3.8818685028        4.6209247189
 O       -12.1135733212        4.0252434404        4.6148362858
 C       -14.2611591541        5.0626406857        5.1666365004
 C       -14.3104508000        4.8952639953        6.6571314811
 C       -14.9826716122        6.0387802823        7.4910136010
 O       -16.0605170662        5.7373844365        7.9967654355
 C       -14.2556643428        7.4268427998        7.5559198651
 C       -12.7002669425        7.3594610968        7.3829701865
 O       -12.0629204906        8.0389272535        6.6083199422
 C       -12.0262877968        6.5192765875        8.6674296019
 C       -14.7073389627        8.3529278008        6.3945206425
 C       -14.5346576619        8.2053299582        8.7974428977
 C       -15.2873054049        2.1485877500        4.8766049717
 C       -12.9424821125        1.4369389811        4.2102733066
 C       -14.7288192470        3.2146736123       -3.2151432663
 C       -15.9687193474        1.3921562547       -2.0548449728
 C        -8.7569424643       -1.0709048431       -1.6435868872
 C        -7.5204871387        0.9565935323       -0.3840512097
 C        -3.5214925321        0.7895392349       -6.4002744187
 C        -1.9970276381        0.6236937386       -4.4191338635
 C        -6.5183255826        5.9551473539       -4.7850404213
 C        -4.7130951511        7.5108826309       -3.9956079993
 H        -7.5836741911        8.7628699318       -2.8201342162
 H        -6.0096488270        9.1031490081       -2.2688109308
 H        -7.1380994148        8.5750183079       -0.9893855996
 H        -2.6004988994        5.6721131683       -3.1786100937
 H        -3.4777351174        5.1616733166       -4.6407763086
 H        -3.4663103657        2.8419325899       -2.7449653332
 H        -1.9881634614        3.3065461196       -3.4718385997
 H        -5.7274007745       -0.5282514688       -5.7625605755
 H        -6.4500831427        1.0629164855       -5.1885552801
 H        -6.2429725103       -0.7827209045       -2.9656066991
 H        -7.5606592655       -1.2280341162       -3.8980750193
 H       -11.3887296721        0.1109180855       -1.6141675499
 H       -11.1994644042        0.7879830211       -3.2133990823
 H       -11.7100503260        3.0964753691       -2.1622865297
 H       -11.9236949969        2.7554053447       -0.5604718014
 H       -15.5729510688        1.9139435275        0.8687519992
 H       -16.8429084468        3.1069733353        0.7587516818
 H       -16.3341883323        3.3520137003        2.6860876696
 H       -15.3717568237        4.6723706933        2.0316816248
 H       -15.2485070438        4.9532304926        4.7193264494
 H       -13.7615599274        5.9552530132        4.7951656128
 H       -13.2550513564        5.0212535257        7.0239930356
 H       -14.6496436871        3.9273667915        6.9470718104
 H       -11.0247464815        6.0463579588        8.3808226733
 H       -12.6488349127        5.7586192801        9.0790547015
 H       -11.8112215343        7.3616492449        9.3868584710
 H       -15.7268045872        8.5451691879        6.5125255392
 H       -14.4418005063        7.7798286922        5.5017201378
 H       -14.1618610478        9.3097461416        6.2950637101
 H       -14.2180037571        7.7995633985        9.6926911818
 H       -15.5871911611        8.2625141143        8.7986857360
 H       -14.0841282004        9.2069079007        8.7994950002
 H       -15.7409323386        1.2169936600        4.4375530739
 H       -16.0685105547        2.8544489633        5.0012618171
 H       -15.1693660521        1.6172763307        5.8298563134
 H       -11.9781174220        1.5642742479        3.8309807704
 H       -13.3059858775        0.4440409657        3.8439440873
 H       -12.6105908887        1.4155470202        5.3004979859
 H       -14.8073385349        2.5467052708       -4.0482281620
 H       -13.7649376866        3.5489432885       -3.2615627069
 H       -15.5749734242        4.0355253514       -3.2376702510
 H       -16.8571598016        1.9317667011       -2.2758234216
 H       -16.2095425538        0.7566002264       -1.1833505031
 H       -15.7618418427        0.6987880803       -2.8926225476
 H        -7.8222215962       -1.7132383107       -1.4601079776
 H        -8.9305438298       -1.4972712872       -2.6385327512
 H        -9.6092237714       -1.3150181102       -1.0552983087
 H        -6.5374616463        0.5852582535       -0.4047456705
 H        -8.0304070309        0.5218128401        0.5244922487
 H        -7.4453574220        2.0284638175       -0.4486560189
 H        -2.6008746356        1.1422301756       -6.9397465403
 H        -4.2828878862        1.4725570221       -6.8502070044
 H        -3.6658961147       -0.2940903879       -6.5752884403
 H        -1.3308845044        1.5008879345       -4.7152535176
 H        -1.5805715967       -0.1747574768       -5.0411796785
 H        -2.0975539894        0.4171083341       -3.4193074214
 H        -7.1417992158        6.7335872017       -5.1129982172
 H        -7.2183061422        5.1277210004       -4.4167058210
 H        -5.9416700723        5.7614822149       -5.7461968647
 H        -5.3257174679        8.3128666308       -4.3773627819
 H        -4.1315441993        7.1373438147       -4.8638782173
 H        -4.1443826514        7.8074241194       -3.1291527546
 Na       -7.6388541387        3.8245321547       -1.7934775920
