117

 C        -6.7869745839        8.3563550440       -2.2509599961
 C        -6.4811514217        6.8694264159       -2.2819101853
 O        -7.2340028452        6.0692674301       -1.7031304437
 C        -5.5696847300        6.2616263157       -3.5238474071
 C        -4.7544684965        5.0297705673       -3.0485576292
 O        -5.0968634959        4.3603032468       -2.0832903625
 C        -3.5040139666        4.7851672890       -3.9010008052
 C        -3.0216352160        3.3533708716       -3.7955172002
 C        -3.4745855191        2.4670245941       -5.1088816225
 O        -4.0559198833        3.1126657765       -6.0195163477
 C        -3.3195591848        0.9103643025       -5.0237198878
 C        -4.5669710938        0.4228858938       -4.0567443034
 O        -4.3817328307        0.4584241420       -2.8442825965
 C        -5.7714771574       -0.0646325493       -4.7567414800
 C        -7.0182788295       -0.3093690047       -3.8711443504
 C        -7.4630576468        0.8137215429       -2.9506615296
 O        -7.0288458550        1.9367656548       -3.0366821828
 C        -8.5290505515        0.4662764880       -1.7231768327
 C        -9.6583142606        1.6345452601       -1.8764822655
 O        -9.4202269511        2.8318006280       -1.6806040463
 C       -11.1618394781        1.0852330421       -2.0937292145
 C       -12.2474879488        2.0764764246       -1.9328073531
 C       -13.6123025164        1.5240738077       -1.3966452351
 O       -13.6329037680        0.6104831183       -0.5792763954
 C       -14.8031439704        2.3757442387       -1.8230418933
 C       -15.1298379553        3.3524643038       -0.6401988852
 O       -14.5856120927        4.4602757382       -0.5194941272
 C       -15.9940830614        2.9117196899        0.4794969990
 C       -15.4260396278        3.5252708795        1.8503216009
 C       -14.0631989825        3.0666727280        2.4255846097
 O       -13.0518468726        2.7506514350        1.8206329014
 C       -13.9806908629        2.7905314213        4.0651674159
 C       -13.2436028931        4.0403948171        4.6981389490
 O       -12.0161465764        4.1405025608        4.6778747199
 C       -14.1639835383        5.1048052897        5.2750651042
 C       -14.1648454205        5.1418904250        6.8562590364
 C       -15.0208518494        6.2784911370        7.4953801641
 O       -16.0938454877        6.0885501597        7.9158591715
 C       -14.2436394795        7.7991118473        7.4582949911
 C       -12.7637184188        7.3500042272        7.5099688078
 O       -12.0902959238        7.4755877595        6.4924938606
 C       -12.1731790923        6.9286149571        8.8077283591
 C       -14.8224446178        8.4248975398        6.1410034757
 C       -14.8278878301        8.5510754696        8.7743324448
 C       -15.2795595950        2.3721558174        4.6785688200
 C       -12.9759242928        1.5820653180        4.1843416953
 C       -14.5058550669        3.2896732477       -3.0977834999
 C       -15.9763914455        1.4182455372       -2.1218712001
 C        -9.0606974814       -0.9502823881       -1.6715340006
 C        -7.8125472248        0.6013605745       -0.3512328603
 C        -3.2555216799        0.3483607141       -6.4921981241
 C        -1.9850894176        0.5607642381       -4.1680896603
 C        -6.6471770086        5.7704520080       -4.6300635155
 C        -4.7944720676        7.4321213140       -4.1117613725
 H        -7.0645625059        8.7007575827       -3.2587412304
 H        -5.9359737488        8.9675399746       -1.8784916660
 H        -7.5607723852        8.4860800135       -1.5603749312
 H        -2.7936103819        5.4573527501       -3.4008761885
 H        -3.4559036458        5.0027238869       -4.9711517347
 H        -3.3243092089        2.8236268209       -2.8822918234
 H        -1.8244605123        3.5021858377       -3.8198951924
 H        -5.5208862251       -0.8862565739       -5.3118614520
 H        -6.0361369495        0.8171190450       -5.4166805510
 H        -6.9999530151       -1.2500441463       -3.1920459548
 H        -7.8195415067       -0.5484760102       -4.6520663042
 H       -11.4117508595        0.3741702964       -1.2551535140
 H       -11.2252198763        0.3997545028       -2.8854907746
 H       -12.2113026184        2.8436050241       -2.7446540477
 H       -12.0698462719        2.7204788903       -1.0674417508
 H       -15.7940879660        1.7721039808        0.6158086292
 H       -17.0812618053        3.2042847089        0.2094875631
 H       -16.2051394271        3.4685457606        2.5624155474
 H       -15.3581532624        4.6381479913        1.6695297526
 H       -15.0636807129        4.9508105788        4.6466603263
 H       -13.6798341314        6.1196976388        5.0387572550
 H       -13.1558056680        5.1650673068        7.2469587932
 H       -14.6525460433        4.2383724957        7.3176519646
 H       -11.2113418410        6.5125935869        8.5733713472
 H       -12.8482667480        6.1838237069        9.3717341053
 H       -12.0490339979        7.7642650509        9.4178239887
 H       -15.1959579012        9.3957710394        6.5391645792
 H       -15.5757203642        7.8803567073        5.6149079895
 H       -14.0735934212        8.6428297908        5.4424628884
 H       -15.0123017727        7.7793240834        9.5759987791
 H       -15.7765892914        9.0278917509        8.5134426777
 H       -14.1988796563        9.2465760695        9.2598346658
 H       -15.5974692594        1.4005898757        4.6401305899
 H       -16.1519893079        3.0779372389        4.6102671742
 H       -15.0648368222        2.3120993323        5.7391178973
 H       -11.9924249984        1.8182203982        3.7551341282
 H       -13.3049868208        0.5739414869        3.7283499669
 H       -12.7139859702        1.3318129049        5.1328924093
 H       -13.7345555063        2.9521585459       -3.8277125817
 H       -14.1325744947        4.3214231881       -2.7642564135
 H       -15.4818733542        3.3956395470       -3.5267185160
 H       -16.6051038128        1.8262318849       -2.9544854972
 H       -16.6108354399        1.3954806429       -1.2713626879
 H       -15.7426626049        0.4045564313       -2.2587031209
 H        -8.2722648794       -1.5945043601       -1.7241909882
 H        -9.7845104537       -1.2528126411       -2.4676030344
 H        -9.6589658668       -1.1475529881       -0.7831764473
 H        -6.6811206128        0.3926857936       -0.5528843934
 H        -8.2012840444       -0.1954198739        0.2470281174
 H        -7.7433201137        1.6672388748        0.0229776023
 H        -2.4136716152        0.7265508876       -6.9212207994
 H        -3.9855497074        0.8245406736       -7.1203858546
 H        -3.3165645828       -0.7150863521       -6.5711588096
 H        -1.1267086712        0.9250742177       -4.6703663501
 H        -1.9302113860       -0.5312957383       -4.1254685311
 H        -2.2445801374        1.0472240296       -3.0733729752
 H        -7.0210232715        6.6166199439       -5.3325047719
 H        -7.4225550318        5.2693721518       -4.1588116846
 H        -6.1934864740        5.1789794999       -5.3837566210
 H        -5.4426178867        8.2968075371       -4.2839918970
 H        -4.3059129646        7.2811881947       -5.0052695622
 H        -4.1852842862        7.6325581882       -3.2062148423
 Na       -7.2999011700        3.8524337980       -1.6026625484
