117

 C        -6.7540534883        8.3306498728       -2.2491152560
 C        -6.6478704571        6.8217706849       -2.4174962941
 O        -7.2552651417        6.0992056078       -1.6682400433
 C        -5.6276824764        6.2807324522       -3.5229192127
 C        -4.7430708760        5.0945226068       -3.0125064772
 O        -4.9495374935        4.3471458952       -2.0760475694
 C        -3.4783312052        4.7192615937       -3.9806191298
 C        -3.0083742865        3.2545100545       -3.8927847231
 C        -3.5295520762        2.3517333342       -5.1658522882
 O        -4.1262382274        2.8197717812       -6.0577515338
 C        -3.2505159647        0.8635973951       -4.9109544287
 C        -4.4374178019        0.4146453579       -4.0714050274
 O        -4.4656001480        0.5605028294       -2.8222278835
 C        -5.8316908328       -0.0656592552       -4.8453880327
 C        -7.2035489312       -0.3059661650       -3.8865262905
 C        -7.5099497715        0.8206382397       -2.9023957439
 O        -6.8409341580        1.8323291333       -2.9234907055
 C        -8.5293196631        0.5500278182       -1.7542787971
 C        -9.6557179989        1.6903296852       -1.7690864841
 O        -9.4834516995        2.8679500420       -1.7438134585
 C       -11.0885237917        0.9832454054       -1.9057866304
 C       -12.1708174781        1.9283230803       -1.8659754050
 C       -13.5128620406        1.5239312404       -1.3214237091
 O       -13.7869280370        0.7290005562       -0.4466158973
 C       -14.8895697064        2.3769433492       -1.8306507767
 C       -15.0036903195        3.3868484725       -0.5600016359
 O       -14.5676323435        4.4593413899       -0.6964783756
 C       -15.8345725914        2.8236645712        0.6284729565
 C       -15.3430881318        3.4168314511        1.9168489680
 C       -14.0410978084        2.9610840216        2.3199531887
 O       -13.1014533286        2.8637761309        1.6419019619
 C       -13.9848428306        2.9118977772        4.0168717288
 C       -13.2576186863        4.1262749089        4.6876585952
 O       -12.0487594791        4.0981379323        4.7111816427
 C       -14.1871352061        5.2333140178        5.3429980060
 C       -14.1884053558        5.1868608595        6.9065320964
 C       -14.9824231287        6.3592827362        7.4381793441
 O       -16.1155443463        6.3680809683        7.9200245433
 C       -14.3146551059        7.7960406637        7.4136908648
 C       -12.7190341237        7.5678779288        7.4315331385
 O       -12.1111428706        7.2431635546        6.4401642865
 C       -12.2631746926        7.2235916691        8.9810286820
 C       -14.8096146260        8.4483084065        6.1831224677
 C       -14.9782994807        8.5073528188        8.6183427045
 C       -15.3003428394        2.5733456018        4.6802993179
 C       -12.9577817784        1.7182931299        4.1907426856
 C       -14.6047147700        3.3740750538       -3.0321150625
 C       -16.0466693906        1.3896634105       -2.1136890698
 C        -9.1767945837       -0.8868044468       -1.9613951255
 C        -7.8281177267        0.6332090211       -0.3955227029
 C        -3.1894155909        0.1453515119       -6.2052804937
 C        -1.8811423934        0.5209958314       -4.2715584167
 C        -6.6444131173        5.6850926818       -4.4904821407
 C        -4.7542967337        7.3256428360       -4.1954117656
 H        -6.8065095387        9.0100596232       -3.1050456894
 H        -5.9022732320        8.5355928230       -1.7234631216
 H        -7.6057755297        8.5565704749       -1.4664916906
 H        -2.6552095994        5.4934212812       -3.9937430137
 H        -3.8405648960        4.6795589284       -5.0462314109
 H        -3.2800963588        2.7642570216       -2.9605222685
 H        -1.9139897609        3.2758122287       -3.9782687194
 H        -5.6891167030       -1.0369301392       -5.3390490342
 H        -5.9855481182        0.7185512332       -5.5512949799
 H        -7.0348245538       -1.1561147021       -3.1969192294
 H        -7.9712032454       -0.6926673119       -4.6194130868
 H       -11.3363952340        0.1361828472       -1.3804288088
 H       -10.9608827169        0.5317919572       -2.9038602148
 H       -12.3514039965        2.0897620057       -2.9371573894
 H       -11.8300991663        2.9815490930       -1.5437533196
 H       -15.8345767674        1.7291465005        0.7693152383
 H       -16.7545143173        3.1683533614        0.3602506457
 H       -16.1538246524        3.1522793885        2.6898817471
 H       -15.4409101349        4.5493140842        1.8560503120
 H       -15.0722795907        5.1404007378        4.8463599874
 H       -13.7083847231        6.2354115307        5.1726978782
 H       -13.2253973499        5.0377426947        7.4768216416
 H       -14.8196056861        4.3764221022        7.2177490623
 H       -11.2880083924        6.7046814195        8.7887844841
 H       -13.0082414224        6.6102610032        9.4414334237
 H       -12.1080703511        8.0119957546        9.6617764207
 H       -14.6417673776        9.5287512338        6.2748852852
 H       -15.8366684935        8.2466111957        5.8556999848
 H       -14.0828669935        8.0851926632        5.4093795553
 H       -15.1297041857        7.9594199663        9.5673929931
 H       -15.9028923182        9.0100200221        8.2709418980
 H       -14.2291265260        9.3506399719        8.8590350062
 H       -15.7369998204        1.6327993719        4.4561570134
 H       -16.0638173080        3.3214536437        4.6270069296
 H       -15.1486334054        2.3994298614        5.7490368418
 H       -11.9637470989        1.8879819773        3.8386350291
 H       -13.3222603535        0.7596218545        3.6387754773
 H       -12.8869970896        1.2713897447        5.2209916808
 H       -13.8520952030        3.0059053669       -3.7342162330
 H       -14.1443687156        4.2131279963       -2.5956786286
 H       -15.6138292654        3.7129054943       -3.6016547084
 H       -16.5614619969        1.6227598367       -3.0621174930
 H       -16.7844510580        1.2978263351       -1.3030056628
 H       -15.6597097740        0.3798664546       -2.1573947002
 H        -8.4318604545       -1.7652976527       -1.8794559142
 H        -9.8364974881       -0.9108120224       -2.8948447799
 H        -9.9313574995       -1.1269990648       -1.2476061593
 H        -6.8177844635        0.2928781458       -0.5024345209
 H        -8.3548189812        0.0745796612        0.3924956979
 H        -7.6572044388        1.6722844430       -0.3361015443
 H        -2.3946173180        0.5591992358       -6.7638734386
 H        -4.0331611948        0.3303669269       -6.8668742414
 H        -3.0961166709       -0.9223428796       -6.0360326142
 H        -1.1113529099        0.5658627518       -5.0118156981
 H        -2.0169762981       -0.4438359405       -3.9553440811
 H        -1.7508023226        1.1262208524       -3.4794868266
 H        -7.0723258332        6.3796498619       -5.1520381601
 H        -7.3326142315        5.0405761637       -4.0195544310
 H        -6.0536038135        5.0852904945       -5.1850570084
 H        -5.3863531018        8.1851039213       -4.5357421768
 H        -4.2911141926        6.9752953800       -5.1064762725
 H        -4.0226340732        7.6329712320       -3.4185641918
 Na       -7.1095970587        3.7638717569       -1.5484317144
