117

 C        -6.5944496567        8.1882424423       -2.1140762371
 C        -6.5474981457        6.7087748413       -2.4721615542
 O        -7.1971286205        5.9924645565       -1.7199577991
 C        -5.7079348651        6.1156909517       -3.6128242160
 C        -4.6138674409        5.0198914197       -3.1612446558
 O        -4.8057637549        4.4455506734       -2.1012631333
 C        -3.6037413846        4.5608040665       -4.2383277347
 C        -2.9918518079        3.1318710226       -3.9946798450
 C        -3.5059944390        2.1644761072       -5.1574127385
 O        -4.2772971785        2.5062942313       -6.0897975806
 C        -3.2492276118        0.6027869366       -4.8428039415
 C        -4.5044442858        0.2462682803       -3.9752082890
 O        -4.5174365972        0.4916020770       -2.7740175014
 C        -5.7401551754        0.1065429374       -4.7783818974
 C        -6.9028362499       -0.1553213627       -3.9032583312
 C        -7.3569677657        0.8915446053       -2.9455033799
 O        -6.7126237400        1.9134323059       -2.8449782988
 C        -8.4999767884        0.4463725817       -1.8456478126
 C        -9.6987154570        1.4825526818       -1.8562896152
 O        -9.3225204805        2.6662147321       -1.7678474442
 C       -11.1163312765        1.1576355230       -1.4801290774
 C       -12.2312079771        2.2374239595       -1.9054734278
 C       -13.6159045285        1.7884352433       -1.4509152692
 O       -13.5912923378        0.8686212906       -0.6280169381
 C       -14.9569119916        2.4684620660       -1.9130453391
 C       -15.1347469062        3.4114801555       -0.6113476294
 O       -14.6591767688        4.5668306749       -0.5214609007
 C       -15.8120458116        2.7856784331        0.6193973179
 C       -15.5556109992        3.5933968998        1.9107558127
 C       -14.1724706577        3.1488721917        2.5245053170
 O       -13.2107662124        3.0070936416        1.7428889050
 C       -13.9319417431        2.9677296605        4.1101380708
 C       -13.1235729989        4.2014029417        4.7665941746
 O       -11.9218498554        4.2850623382        4.8307127313
 C       -14.0948896322        5.3730276085        5.2347187208
 C       -14.5266701299        5.2285852472        6.6729046515
 C       -15.2457559633        6.4664309111        7.3248816235
 O       -16.2679035188        6.2212179440        7.8493112208
 C       -14.4525538592        7.8026379234        7.3397183957
 C       -12.8121556473        7.6483106711        7.5863813418
 O       -12.1500555037        7.2438114633        6.6432952560
 C       -12.1514805027        7.9112271053        8.9952567443
 C       -14.4803992227        8.5763564033        6.0171997044
 C       -14.9062439989        8.8518567643        8.4477564053
 C       -15.2413770853        2.5421570421        4.7631226187
 C       -12.9794924261        1.7250362965        4.2979926089
 C       -14.7575186634        3.2281013208       -3.2875645638
 C       -16.1854268218        1.3614439460       -2.0054917869
 C        -8.8771813896       -1.1102598451       -2.0580329949
 C        -7.8766318278        0.4737362517       -0.4037716352
 C        -3.2454237025       -0.1666935438       -6.1242152049
 C        -1.9357862316        0.3410561221       -4.0203284201
 C        -6.6454808391        5.4438043918       -4.5480351788
 C        -4.9926867770        7.2695643104       -4.2023923922
 H        -6.8086843776        8.7082251940       -3.0560213696
 H        -5.5511848811        8.5550658934       -1.7630481533
 H        -7.3380244395        8.4575507734       -1.4572460109
 H        -2.8306521746        5.3199986742       -4.2111302751
 H        -4.1001085675        4.7322551225       -5.1972965930
 H        -3.3559181052        2.8853629167       -3.0283390395
 H        -1.8693194187        3.2199544603       -4.0566533216
 H        -5.8113938413       -0.6985520672       -5.4799874168
 H        -5.7021976062        1.1395100181       -5.2942740669
 H        -6.6318077313       -1.0039100175       -3.3095779748
 H        -7.5876555543       -0.5379360020       -4.5709896061
 H       -11.1267395892        0.8652625972       -0.3406064520
 H       -11.1933248007        0.1245416858       -1.8296341957
 H       -12.0585622510        2.2916206569       -3.0197004333
 H       -11.8697009502        3.1445963736       -1.4999655960
 H       -15.3156265163        1.8409688653        0.8174469443
 H       -16.8841121236        2.5614169184        0.2905328963
 H       -16.3745981040        3.6328378731        2.5218617279
 H       -15.3871891793        4.5940707029        1.5776450904
 H       -14.8680280336        5.2567268895        4.4164472162
 H       -13.6196510670        6.3212195428        5.2026602457
 H       -13.7898606409        5.2029490635        7.4118213544
 H       -15.1475768653        4.3266090952        6.8562047378
 H       -11.1197169676        7.5717733749        8.9544888097
 H       -12.9595480532        7.4521172143        9.6662683512
 H       -12.1304525220        8.9398613994        9.4294902252
 H       -13.5174136003        9.1380746667        5.8965903626
 H       -15.2424400315        9.3557444948        6.2286812751
 H       -14.6818640966        8.0931831812        5.0812031267
 H       -14.4424457104        8.5763667095        9.4083339368
 H       -15.9862153047        8.8201098526        8.6158442815
 H       -14.6279140690        9.8430277798        8.2065640125
 H       -15.6534953968        1.8267061930        4.0068997582
 H       -16.0599509200        3.3308575561        4.8153131892
 H       -15.3039051981        2.0748081456        5.7617449082
 H       -12.0075165368        1.8406385072        3.7524779469
 H       -13.3761665545        0.8139810585        3.8560009628
 H       -12.8590423666        1.3661362107        5.2484754642
 H       -14.9848422968        2.4738112566       -4.0483691206
 H       -13.7045431230        3.6276536938       -3.5201775191
 H       -15.3449027460        4.0542660825       -3.4200491104
 H       -16.6224268895        1.4005141510       -3.0139847697
 H       -16.9807812725        1.4289645957       -1.2637268706
 H       -15.7686665524        0.3480038739       -1.8556039493
 H        -8.1047817713       -1.7435789234       -1.9277405046
 H        -9.4058730563       -1.1912475246       -2.9945354557
 H        -9.6563737643       -1.5289037686       -1.3531708252
 H        -7.3393382779       -0.3765608950        0.0325867240
 H        -8.6807483847        0.6995087381        0.2090116796
 H        -7.1692717772        1.3056578886       -0.4813209315
 H        -2.4354314558        0.1199057512       -6.8326672147
 H        -4.1966006768        0.0570737274       -6.6694052832
 H        -3.3064611475       -1.2719660504       -5.9371467800
 H        -1.1546885570        0.7772727172       -4.6111192642
 H        -1.9113079489       -0.7534342718       -3.8471008757
 H        -2.0210090550        0.9905838142       -2.9937979077
 H        -7.4504619375        6.2982093178       -4.7346693268
 H        -7.1071172892        4.4861189462       -4.2185718827
 H        -6.2032362809        5.2132922254       -5.5251972450
 H        -5.7413528734        7.9388661660       -4.6048539417
 H        -4.5711904332        6.8700478481       -5.1185715942
 H        -4.2141261771        7.7709807895       -3.5788741179
 Na       -7.0652762705        3.6427528868       -1.5012180537
