117

 C        -6.4783008795        7.9936256123       -2.0821704421
 C        -6.5017987252        6.5429661108       -2.3435580548
 O        -7.1584973977        5.7539710870       -1.6983640897
 C        -5.7470307878        6.1337865786       -3.7360651359
 C        -4.6801273705        4.9252451313       -3.1872233030
 O        -4.7407116096        4.3884909299       -2.1179724914
 C        -3.6802156684        4.4867374173       -4.3360537604
 C        -3.0327384208        3.0302930733       -4.0530969156
 C        -3.5252011881        2.0494482543       -5.1128326195
 O        -4.2216732095        2.4120605347       -6.0248110546
 C        -3.1607568006        0.6106724956       -4.8328589845
 C        -4.4625718987        0.4459639213       -3.9701292547
 O        -4.3605623371        0.2092222511       -2.7086659340
 C        -5.8380943989        0.1513511849       -4.8350654375
 C        -7.0402486795       -0.2889952763       -3.8951660447
 C        -7.3684657027        0.7840891272       -2.8217373249
 O        -6.9192703054        1.8970674613       -2.8592963586
 C        -8.4592309587        0.3897466853       -1.8254547080
 C        -9.5101099908        1.5726891260       -1.6963232109
 O        -9.2042686246        2.6991431212       -1.8842103788
 C       -11.0785559675        1.2403764510       -1.3149069849
 C       -11.9847591670        2.3042467832       -1.9679159986
 C       -13.4440776262        1.7717230416       -1.5618825939
 O       -13.6543423683        0.8263473185       -0.8018871518
 C       -14.9277415561        2.4885538292       -1.9096318168
 C       -15.1656608251        3.4306605745       -0.6003075099
 O       -14.8211848119        4.5404656043       -0.6587566758
 C       -15.8361038590        2.8874871308        0.7224558672
 C       -15.4217598761        3.6190436381        1.9973541347
 C       -14.1689110913        3.3451019820        2.5888405943
 O       -13.1866923051        3.0599044015        1.9092769861
 C       -14.0122259459        2.9819194877        4.1427309179
 C       -13.2077442602        4.2287644412        4.7198661851
 O       -12.0148059921        4.1747656604        4.8024854598
 C       -14.0224875251        5.5449794404        5.0282307446
 C       -14.5628659917        5.2676832965        6.5295384617
 C       -15.2755666370        6.5118247734        7.3547030802
 O       -16.3590390341        6.4195451559        7.8372201139
 C       -14.3544945150        7.9739551762        7.3986019622
 C       -12.8677431354        7.6185315658        7.6381917097
 O       -12.0786820734        7.2618617145        6.7649822830
 C       -12.1575297116        8.1688577994        8.9344353740
 C       -14.4418417937        8.6024523872        5.9612559426
 C       -15.0833756724        8.9046123948        8.3988976673
 C       -15.2443609653        2.5296761287        4.8999166346
 C       -12.9354756866        1.7757250371        4.2132414425
 C       -14.9111135241        3.2222768404       -3.2254321166
 C       -16.0505247725        1.4581930274       -1.9289340063
 C        -8.8792245103       -1.1051683401       -1.9972765227
 C        -7.9235732563        0.3765683544       -0.4078408364
 C        -3.0891979466       -0.1964517157       -6.0966981855
 C        -1.9718071809        0.2345054203       -3.8778066376
 C        -6.7673517685        5.4091263737       -4.6410130784
 C        -4.9856356580        7.3851928840       -4.4997262710
 H        -6.8741358202        8.5975322633       -2.8879002984
 H        -5.4643158582        8.2054901686       -2.0196186052
 H        -7.0233104846        8.3240170763       -1.1039678109
 H        -2.9018030364        5.2172694513       -4.4269952606
 H        -4.2105906209        4.5887094094       -5.2743115587
 H        -3.1564264752        2.9046199103       -2.9686496490
 H        -1.9118089915        3.1283202739       -4.4262636187
 H        -5.6697149862       -0.5590239554       -5.5928721542
 H        -5.9880023562        1.1852402628       -5.2865471502
 H        -6.6993658491       -1.2160007870       -3.3559429136
 H        -7.8928338379       -0.6595499110       -4.4891637859
 H       -11.2545889394        1.0601818546       -0.1979163634
 H       -11.2630358462        0.2088195581       -1.6188416007
 H       -11.7758106383        2.2679507943       -3.0293801195
 H       -11.7379423177        3.2657940102       -1.5546698252
 H       -15.5631854289        1.7061897543        0.8928583844
 H       -16.9729196654        2.9643536976        0.5572766303
 H       -16.1992245668        3.4256184400        2.6767162396
 H       -15.4834309826        4.6508960675        1.7400897106
 H       -14.7714280144        5.5317028690        4.2414248484
 H       -13.3401757918        6.5232704041        4.9671168150
 H       -13.9154046678        5.0375128898        7.3644548632
 H       -15.2830494392        4.4478465147        6.4382879775
 H       -11.0599117009        8.1101266134        8.7094808567
 H       -12.6502586449        7.9936529738        9.9131869412
 H       -12.3037772237        9.2106642715        8.9420505221
 H       -13.4413872241        8.8036797819        5.5066490980
 H       -15.0211350410        9.4843803350        5.9977327330
 H       -14.8763921509        7.8883489926        5.2981606394
 H       -14.8933983950        8.5772904045        9.4056662586
 H       -16.0827561526        8.5957386121        8.2861584238
 H       -15.0308946394        9.9447581760        8.2380788866
 H       -15.6942380810        1.6479676319        4.4443988485
 H       -16.1501915198        3.2613548272        4.9569816808
 H       -15.0697880101        2.3849928659        5.9953512579
 H       -12.1950378618        2.0369851816        3.5827224722
 H       -13.2797736946        0.7823629588        3.7619386092
 H       -12.6515602320        1.3861847456        5.1331791474
 H       -15.1702514376        2.5460821883       -4.0133564475
 H       -13.9476622520        3.6441912431       -3.4351904143
 H       -15.5617187084        4.2198634677       -3.3151770667
 H       -16.4407462766        1.3351867144       -2.9829390756
 H       -16.8719622307        1.8331172797       -1.3551718649
 H       -15.8206177440        0.5124005699       -1.5207171469
 H        -8.0851158042       -1.7572714203       -1.7799805109
 H        -9.4559470805       -1.3472338325       -2.8927553635
 H        -9.4875871469       -1.3590722032       -1.2534380014
 H        -7.3948681546       -0.5845533191       -0.0862133732
 H        -8.7961192614        0.5572741329        0.2764678100
 H        -7.1447614193        1.1913225841       -0.3487209474
 H        -2.0776822024       -0.2014547903       -6.3244569053
 H        -3.6217464941        0.3056059362       -6.9477124041
 H        -3.4724297925       -1.2390298504       -6.0706167558
 H        -1.0426779936        0.9330166048       -4.1105261858
 H        -1.9191189162       -0.9086392883       -4.1052944517
 H        -2.3042722365        0.3830521992       -2.8732389326
 H        -7.6717452779        6.1049611427       -4.7587135424
 H        -7.0687744213        4.4181469171       -4.2707542952
 H        -6.3615551284        5.1294489038       -5.6618091318
 H        -5.8098782925        8.0090584538       -4.8435590094
 H        -4.3854213503        7.1401170281       -5.2897802438
 H        -4.3740177428        7.9455467828       -3.7450635486
 Na       -7.1381275135        3.7055729154       -1.4744118225
