117

 C        -6.1949308228        7.9726741983       -1.8675073539
 C        -6.4989676443        6.5200612192       -2.4652028927
 O        -7.1327378061        5.7427384261       -1.7310510683
 C        -5.8436479344        6.0435023643       -3.8209893239
 C        -4.6992243894        4.8475198334       -3.4163888591
 O        -4.8733576368        4.1843040504       -2.3914899308
 C        -3.5968082011        4.4346888765       -4.4800536999
 C        -2.9354845217        3.1724414745       -4.1077711504
 C        -3.4473123090        1.9595971429       -4.9553193028
 O        -3.9856385649        2.3023464185       -6.0163438598
 C        -3.0380510751        0.4579937517       -4.7036969516
 C        -4.6241783738       -0.0789948956       -3.9636619348
 O        -4.5143869942       -0.3072354152       -2.8037854714
 C        -5.9267551021        0.0706612656       -4.7165367306
 C        -7.0360970401       -0.4698745309       -3.8716768149
 C        -7.4443245780        0.6428688107       -2.8046477287
 O        -6.9640160462        1.7793747460       -2.8889009833
 C        -8.4625143788        0.2855579003       -1.5884741705
 C        -9.6058029367        1.6337080871       -1.5220810002
 O        -9.1737060062        2.6978725877       -1.9650984119
 C       -11.0562547874        1.4526705401       -1.2284364087
 C       -12.0245055607        2.2923068794       -1.9826054982
 C       -13.4888148698        1.6080076356       -1.4939532645
 O       -13.5198558505        0.4775562872       -1.0705348502
 C       -14.8236448761        2.5328978951       -1.6917478030
 C       -15.1565253757        3.6010772227       -0.5913553173
 O       -15.0077339272        4.8564650555       -0.7778484969
 C       -15.7354312461        2.9864800055        0.5990228619
 C       -15.3908912213        3.6999083294        1.9669338494
 C       -14.1205381775        3.2718560271        2.6080297057
 O       -13.2103410423        3.3615238036        1.8264603563
 C       -13.9110135089        2.9700704862        4.1255474131
 C       -13.1692004921        4.2516653724        4.7161402655
 O       -11.9613315713        4.2013570695        4.8891661645
 C       -14.0646726438        5.4944504789        5.0297966041
 C       -14.5989389291        5.3785241792        6.4188244833
 C       -15.1521829045        6.6979763359        7.1939913142
 O       -16.2512328816        6.6906860581        7.6491841833
 C       -14.3653575427        8.2258907580        7.2279449261
 C       -12.8408542021        8.0053816294        7.6802466154
 O       -12.1777180539        7.1301585487        7.1068753078
 C       -12.3679257917        8.7127215962        8.8926185749
 C       -14.5253218876        8.8659794259        5.7757630552
 C       -15.1444202070        9.0018829703        8.2923632126
 C       -15.3071143078        2.6027250810        4.9341757157
 C       -12.9904165313        1.7300258569        4.3378678972
 C       -14.7597870773        3.4041669086       -2.9280272280
 C       -15.9500534505        1.3748533769       -1.8057927037
 C        -9.3439391163       -0.8225389923       -1.7777213821
 C        -7.7276191570        0.3935309947       -0.2667561138
 C        -2.8977445169       -0.2361398544       -6.0087399134
 C        -1.8152699030        0.2929248372       -3.7470539164
 C        -7.0096273974        5.2786862989       -4.7307270108
 C        -5.1263980870        7.1257398409       -4.6738916608
 H        -7.0838721565        8.5595515282       -2.1701155911
 H        -5.2477180720        8.6091691115       -2.1046768339
 H        -6.2807983444        7.8933712075       -0.8646647625
 H        -2.7996076317        5.2207658940       -4.5946515405
 H        -4.1358793666        4.4521452263       -5.4656157660
 H        -3.1359726824        2.9798608550       -3.0443695241
 H        -1.9287324293        3.2802264453       -4.3225167483
 H        -5.6651748715       -0.4078113843       -5.7082397411
 H        -6.0588213796        1.1105149249       -4.9351494087
 H        -6.7925588450       -1.4205774897       -3.3821594372
 H        -7.9726842364       -0.6992127403       -4.4577215878
 H       -11.1672217988        1.2347323311       -0.2072255019
 H       -11.2588036315        0.4430481473       -1.5459233933
 H       -11.8479575628        1.9701188042       -3.0645651928
 H       -12.0630254646        3.3770258796       -1.7408977172
 H       -15.5938076127        2.0125131887        0.6277139943
 H       -16.7697402209        3.1614466823        0.5376171913
 H       -16.3395778080        3.4237359101        2.5183256225
 H       -15.4035729734        4.8345831871        1.7664191504
 H       -14.7675955724        5.7137557993        4.1964484330
 H       -13.3948735554        6.2401799232        4.9962029172
 H       -13.9800504392        4.8299798209        7.1587697233
 H       -15.5415467186        4.8097828854        6.2976353687
 H       -11.3588902303        8.7003595341        8.8886607204
 H       -12.9874552340        8.4472598314        9.7154287442
 H       -12.6308069879        9.7730570600        8.9204373537
 H       -14.0635325257        8.2362464225        5.0630634952
 H       -14.2220484081        9.9236631306        5.7193666337
 H       -15.5540798385        8.7209333424        5.4642299403
 H       -15.3371271299        8.2102020906        9.0254272498
 H       -16.1768368274        9.3966425876        8.1303446799
 H       -14.5645606919        9.8491844371        8.6844410960
 H       -15.7905068206        1.6668984302        4.6550964430
 H       -16.1117122200        3.2763013498        4.8619815804
 H       -15.0433983552        2.6148596050        5.9520225931
 H       -11.9689363787        1.8304017661        3.7520509418
 H       -13.2799155306        0.7143233458        4.1118412600
 H       -12.8707070077        1.6446748666        5.4183975951
 H       -14.5005474936        2.8418875164       -3.8567583288
 H       -14.2499640232        4.3932768032       -2.8136634385
 H       -15.6867328941        3.7577948662       -3.1135013504
 H       -15.5154310525        0.5837296499       -2.3365582804
 H       -16.8028668551        1.7407665597       -2.3885160099
 H       -16.3310292925        0.9415148093       -0.8490993212
 H        -8.7766775445       -1.7664693309       -1.8391177733
 H        -9.9544179565       -0.6752012334       -2.7166417981
 H       -10.0096214032       -1.0973687688       -0.8191432691
 H        -6.7762938320       -0.1322346830       -0.4394372775
 H        -8.2453095518       -0.2171526491        0.4462825021
 H        -7.4943645601        1.4232664312        0.1202686999
 H        -1.9270308826       -0.7550288980       -6.1909986680
 H        -3.2087730783        0.3380347345       -6.8255080470
 H        -3.6156686282       -1.0083052889       -6.0369776100
 H        -1.1639225429        0.9715476979       -4.0004364292
 H        -1.4714680241       -0.6234201605       -3.9269520976
 H        -2.1206537832        0.3915452514       -2.6828343920
 H        -7.8186365322        5.9785412823       -4.9299831960
 H        -7.4179432485        4.5454351679       -4.0963291038
 H        -6.7088657888        4.7106419915       -5.5121067769
 H        -5.7008528852        8.0282602535       -4.8409090834
 H        -4.6200086093        6.6315994077       -5.5600978174
 H        -4.2186993665        7.4180904125       -4.1406768279
 Na       -7.0563966516        3.4670193253       -1.4956914639
