117

 C        -5.7550846480        7.7639379023       -2.0668438719
 C        -6.3108961289        6.3879379173       -2.5163892879
 O        -7.0402070120        5.8225765213       -1.6823569966
 C        -5.9546995472        5.8285019346       -3.9245969854
 C        -4.8238084176        4.5732029454       -3.6220553774
 O        -5.0207980351        3.6797348685       -2.7912142826
 C        -3.5442634034        4.4535697467       -4.3570706203
 C        -2.8904647863        3.1343836475       -4.0794928886
 C        -3.6287970159        1.9618378840       -4.9870234017
 O        -4.0458258504        2.2442043356       -6.0793256562
 C        -3.3353470546        0.4035792430       -4.4679622476
 C        -4.6072203748       -0.3435699803       -3.8739351974
 O        -4.3956506894       -0.9829600252       -2.8296918852
 C        -5.8644594698       -0.3671320035       -4.5968973631
 C        -7.0990787828       -0.6630425421       -3.7930724581
 C        -7.4396021434        0.5553625951       -2.8256902472
 O        -6.6799648279        1.5189331823       -2.9939937156
 C        -8.5786081879        0.4700250480       -1.5503487242
 C        -9.6072540429        1.6743031828       -1.5556082985
 O        -9.0435375837        2.7907407118       -1.7494696107
 C       -10.9897517538        1.4960701537       -0.9022087802
 C       -12.1943402292        2.3352752210       -1.3001805799
 C       -13.5727010416        1.6293353795       -1.4758963075
 O       -13.5970543586        0.4743658651       -1.2060962809
 C       -14.8203647288        2.4597576609       -1.7324492646
 C       -15.0964853322        3.5037848115       -0.5441745861
 O       -14.7624664900        4.7365364297       -0.6230432143
 C       -15.7180498214        2.9454161170        0.7051038974
 C       -15.3596569090        3.8500890488        1.8532987079
 C       -13.9912507111        3.3528309161        2.4673973255
 O       -12.9766169858        3.2450873978        1.8874182755
 C       -13.9669741028        3.0894526429        4.0403320877
 C       -13.2300085144        4.3504450540        4.8020113189
 O       -12.0335368514        4.2744359341        5.0862591237
 C       -13.9308677118        5.6924201183        5.2331649545
 C       -14.4186816004        5.6059551613        6.6456363210
 C       -15.1065469365        7.0116721709        7.0010024864
 O       -16.2975636907        6.8991074895        7.2738063044
 C       -14.5048546303        8.4459581110        7.1214366367
 C       -13.0730246767        8.3071771348        7.7302525397
 O       -12.4103034469        7.3661484009        7.3408910614
 C       -12.4355796152        9.2999537516        8.6078200627
 C       -14.1418661067        8.9911240866        5.7738726667
 C       -15.4829623536        9.2393661970        8.0475485763
 C       -15.3188258301        2.7972575853        4.8937822414
 C       -12.9497635446        1.9167102508        4.0977166849
 C       -14.5355196738        3.3844340772       -2.9502235599
 C       -16.1224548826        1.6354243618       -2.1621344050
 C        -9.2696826520       -0.9084291371       -1.8504835047
 C        -7.7367202841        0.5946786130       -0.3116905642
 C        -3.0371397900       -0.4842066745       -5.6472034438
 C        -2.1678762779        0.3436751103       -3.4322889272
 C        -7.1606855693        5.1534401077       -4.5483176004
 C        -5.2322838642        6.8161686268       -4.9026699885
 H        -6.3028766108        8.6990947689       -2.3048008303
 H        -4.6503680751        7.8663664151       -2.4163213529
 H        -5.6299253374        7.6587097970       -1.0701505887
 H        -2.9756247600        5.3065429728       -4.0145178612
 H        -3.6467932555        4.6031336356       -5.4052997923
 H        -2.8359757965        2.7509168660       -2.9646044572
 H        -1.8900863217        3.1821259658       -4.4806093563
 H        -5.7284763182       -1.3686497328       -5.1433558794
 H        -5.9532758983        0.4059876162       -5.2606445790
 H        -6.9264391473       -1.6182722857       -3.2665712632
 H        -7.9023852600       -0.9158893538       -4.5805097970
 H       -10.8220627861        1.4414164834        0.1284681932
 H       -11.3503551156        0.4082028859       -0.9830300610
 H       -12.2020759113        2.8454578505       -2.2260911536
 H       -12.5383720302        2.8970046317       -0.3931193650
 H       -15.3123190855        1.9565932955        0.8934703012
 H       -16.9013465720        2.7105580484        0.5618135154
 H       -16.1870684963        3.7341907729        2.5695542547
 H       -15.2307095148        4.8295683372        1.4617237021
 H       -14.8347854665        5.8632858676        4.4986223100
 H       -13.2896726990        6.4576539264        4.8765789320
 H       -13.4949384240        5.2533266409        7.2279087902
 H       -15.2221847378        4.8785178084        6.7104599451
 H       -11.4957199742        9.0034276294        8.9834082710
 H       -13.1970210679        9.7329557482        9.2518696350
 H       -12.1914685433       10.2965624353        8.0648178292
 H       -13.9278351740        8.1178903001        5.2172866369
 H       -13.2431360330        9.6305206803        5.7819769257
 H       -14.9884895944        9.4959546255        5.2164811255
 H       -15.3540382385        9.1146890771        9.0801389453
 H       -16.4977129325        8.9093719964        7.9847492969
 H       -15.3990514636       10.2938109435        7.7326007085
 H       -16.1551777000        2.1827729235        4.3290682516
 H       -15.8889484018        3.6549335456        5.2712775142
 H       -14.9218838952        2.1666059203        5.7484475263
 H       -11.9089327752        1.9950295017        3.5672278771
 H       -13.4314531703        1.1749895831        3.6101769448
 H       -12.7790694456        1.4127830030        5.0851652316
 H       -14.3721254197        2.8486549377       -3.9342587349
 H       -13.7331894109        4.1142039655       -2.6841740627
 H       -15.3091244149        3.9298863346       -3.2737814400
 H       -15.8394019342        0.8978043596       -2.8549291277
 H       -16.8555525009        2.3170280949       -2.6402078073
 H       -16.5017282818        1.0792410357       -1.2716745796
 H        -8.6456783240       -1.7804809938       -1.8662519432
 H        -9.4866823569       -0.8284750055       -2.8827849036
 H       -10.2098256465       -1.0121554142       -1.2634122040
 H        -7.0711950688       -0.2638259959       -0.2433116311
 H        -8.2079622889        0.9193015461        0.6509250064
 H        -7.2242145360        1.5783695163       -0.4673033255
 H        -2.1299394521       -0.0910917830       -6.2552379920
 H        -3.9186973147       -0.5842037936       -6.2705396199
 H        -2.7075845258       -1.4982710849       -5.4432692897
 H        -1.2460042044        0.5142961443       -3.8708004236
 H        -2.2267785291       -0.5314066970       -2.7996767424
 H        -2.4759591509        1.2675853708       -2.7641256156
 H        -8.0424651404        5.7450309708       -4.8192861136
 H        -7.5315725595        4.3276453452       -3.8322690706
 H        -6.7783121156        4.4818487828       -5.3355865481
 H        -5.8949709596        7.6117408578       -5.1379735484
 H        -4.9898542842        6.1678654064       -5.8070188641
 H        -4.3592002337        7.2860693628       -4.6295595260
 Na       -7.0843359816        3.5652476936       -1.6049651457
