117

 C        -4.8891545792        7.4530604104       -2.7775312909
 C        -5.8581214513        6.3004732617       -3.0464021723
 O        -6.5107334107        5.7772014409       -2.1799656931
 C        -5.6624802171        5.4145324801       -4.3081018030
 C        -4.8087364663        4.1536919362       -3.8850707653
 O        -5.2496543893        3.3633503898       -3.0490984939
 C        -3.3975466379        3.9372664843       -4.4839737453
 C        -2.9538973994        2.5328419661       -3.9621508225
 C        -4.0268225409        1.3986682156       -4.5584830582
 O        -4.9117436383        1.6531231569       -5.3543901955
 C        -3.6248840601       -0.1084329685       -4.2044406930
 C        -4.9984287010       -0.6079564716       -3.4120370157
 O        -5.0964682400       -0.5431869604       -2.2128743272
 C        -6.2360935120       -0.9021258676       -4.1691894325
 C        -7.5612691724       -1.0634767362       -3.4286073406
 C        -7.7976075751        0.0576034012       -2.4255497680
 O        -7.3269976164        1.1326691834       -2.8548327980
 C        -8.5753137762        0.0723104098       -1.0921331203
 C        -9.6943095727        1.1802668409       -0.9789511565
 O        -9.3638479925        2.3885160944       -1.0689045563
 C       -11.1614969635        0.8312974356       -1.1229881835
 C       -12.2181303382        1.9789004198       -0.8678008815
 C       -13.5330104648        1.6952555105       -1.4928007234
 O       -13.8218055428        0.5049231542       -1.6224101284
 C       -14.3816964514        2.9518049989       -1.7827371675
 C       -14.4798175936        3.9274973034       -0.3842510689
 O       -13.8558823787        4.9407617008       -0.3346659780
 C       -15.4386358339        3.3506325894        0.6120503177
 C       -15.1874496490        4.0015664207        1.9192504268
 C       -13.9111429800        3.2468427489        2.6139613595
 O       -12.7842426868        2.9888587542        2.0393926835
 C       -13.9112960753        3.0893218628        4.1269429909
 C       -13.2538486472        4.4607398840        4.8374324740
 O       -12.1358679629        4.4375804912        5.2494564689
 C       -14.0548144409        5.8143967719        4.8628143729
 C       -13.6657378614        6.5735466480        6.1758285921
 C       -14.7017436625        7.6434822061        6.3408368418
 O       -15.8804507426        7.1957830290        6.3357094018
 C       -14.4128091365        9.1422898000        6.4965478215
 C       -13.3772037682        9.4052867167        7.7465563421
 O       -12.8913051675        8.5025081770        8.3828879660
 C       -13.3213994961       10.7572503087        8.3889502098
 C       -13.8645869480        9.6889459903        5.2333516796
 C       -15.7293986873        9.9150951304        6.6634397533
 C       -15.3991287374        3.0981503096        4.7229560517
 C       -12.9897399943        1.8428674464        4.3347193151
 C       -13.7597972468        3.8561219105       -2.8714988016
 C       -15.7683839195        2.3780199254       -2.1749528589
 C        -8.8993509541       -1.4379714135       -0.6360442180
 C        -7.4160851589        0.3626077932       -0.1409956085
 C        -3.3688648666       -0.7753121095       -5.5143690892
 C        -2.4396372450       -0.2359811642       -3.2465241217
 C        -7.1069933182        4.9878016573       -4.6696207423
 C        -5.0928900678        6.2110527257       -5.4816773347
 H        -5.1937462386        8.3745692896       -3.3780994367
 H        -3.8874471595        7.1659608320       -2.9761925161
 H        -4.9966345078        7.8502648976       -1.7514838974
 H        -2.6969957684        4.7421333090       -4.3661610038
 H        -3.6294676088        3.9152950339       -5.5397601106
 H        -2.8241889208        2.3161750677       -2.9592427483
 H        -2.0897669676        2.1001268367       -4.5421393169
 H        -6.1381656885       -1.8463978931       -4.6073086364
 H        -6.2140858504       -0.1632847614       -5.0175601185
 H        -7.6173139640       -2.0889026034       -2.9529289616
 H        -8.3639931006       -0.9928954580       -4.1189909521
 H       -11.5366184273        0.0230603853       -0.4520581565
 H       -11.5380455173        0.5755163650       -2.0886624750
 H       -11.7666817882        2.9030419691       -1.4434564959
 H       -12.2284798696        2.3220327235        0.1716444074
 H       -15.4726420300        2.1896148636        0.6045186679
 H       -16.3905514841        3.7111989412        0.3225320638
 H       -16.0650664449        4.0419225221        2.4474259340
 H       -14.8002610626        5.0188337442        1.8826083744
 H       -15.0624946937        5.7959526588        4.8192649634
 H       -13.5901981330        6.5210712244        4.1215951447
 H       -12.6595720363        6.9262428696        6.0775183169
 H       -13.5724232284        5.8279742222        7.0098500817
 H       -13.9462850300       11.6270335200        8.0106473078
 H       -12.3359273154       11.2183352721        8.2328328347
 H       -13.7236132755       10.6462922776        9.3623748030
 H       -13.1743753730        8.9013501531        4.7400990764
 H       -13.3136348890       10.6398264009        5.4296818287
 H       -14.5766240188        9.8813896080        4.4509960374
 H       -16.1880221396        9.3346776169        7.5169018445
 H       -16.3855934675        9.8963389234        5.7473440796
 H       -15.8124709382       10.8575444690        7.2018163211
 H       -15.9659821097        2.2477384349        4.4263904475
 H       -15.8219712266        4.1138185702        4.4556561684
 H       -15.0864448454        3.0280853003        5.8038670633
 H       -12.0518035378        1.9996926810        3.8067803686
 H       -13.4462905453        1.0414309144        3.8204686294
 H       -12.7444218903        1.5653834246        5.4859257302
 H       -13.3473971446        3.3970304994       -3.7107256696
 H       -12.8219013902        4.3580425638       -2.5885297128
 H       -14.4639351602        4.7635852358       -3.0036291457
 H       -15.6816522862        1.8984804308       -3.1945332877
 H       -16.3771385958        3.2578525188       -2.2728121559
 H       -16.1624851089        1.7750260423       -1.3844316926
 H        -7.9593392106       -2.0082927206       -0.4610861355
 H        -9.5433629960       -1.8795338610       -1.2606959151
 H        -9.3178803459       -1.4282669553        0.4120203912
 H        -6.7346768573       -0.4462837398       -0.0539648607
 H        -7.6108063124        0.7004187895        0.8673660285
 H        -6.8536122506        1.0812624262       -0.6560095165
 H        -3.2596798392       -0.0611114225       -6.2791955523
 H        -4.3575252524       -1.3079807514       -5.7891226788
 H        -2.5833256692       -1.5588351084       -5.5104209538
 H        -1.5941851761        0.2464593047       -3.5529761604
 H        -2.0986583500       -1.2221739608       -3.0433237610
 H        -2.6866367844        0.2225838407       -2.1937018049
 H        -7.8670360879        5.3393186178       -4.0332680958
 H        -7.1231026429        3.8055212713       -4.5968839170
 H        -7.4099481590        5.3585949664       -5.7286702792
 H        -5.6206900971        7.1973127498       -5.3776441459
 H        -5.3233720950        5.9251522040       -6.4653301478
 H        -3.9885678832        6.4462759600       -5.5285305379
 Na       -7.3369631284        3.2312644550       -1.9868069648
