117

 C        -5.2218790844        7.3411500790       -2.7212972555
 C        -5.9255282440        6.0359793648       -3.0064118713
 O        -6.5406173401        5.5122216438       -2.0812241954
 C        -5.7329620694        5.2932842075       -4.4284363533
 C        -4.9577398394        3.9923320184       -3.9319913062
 O        -5.4241672448        3.3756644381       -3.0432661002
 C        -3.5376170960        3.5791878547       -4.5936332391
 C        -2.9236622226        2.3760611081       -3.9775534391
 C        -3.9129360061        1.1717695168       -4.4945272344
 O        -4.9354229118        1.4868515935       -5.0956828586
 C        -3.7496975652       -0.3312718049       -4.2130619573
 C        -5.0849231252       -0.5051552533       -3.4201798266
 O        -5.2931090800       -0.2171751578       -2.2621021074
 C        -6.3387961126       -0.9216741826       -4.1988980628
 C        -7.5233782157       -1.2333292838       -3.1374342048
 C        -7.7272568274        0.0667032404       -2.3598551537
 O        -7.7567018812        1.0679199319       -2.9878748711
 C        -8.3630194129        0.0687079603       -0.9067583539
 C        -9.4686404696        1.1866431367       -1.0404632375
 O        -9.0561846509        2.2874852400       -0.7727267600
 C       -10.8439957635        0.7482521015       -1.3337510681
 C       -11.8123529350        1.9643670286       -0.9064416139
 C       -13.3151419965        1.7888711533       -1.3921291088
 O       -13.7124014222        0.7351298124       -1.7801124589
 C       -14.2428995491        3.0743742706       -1.7751787411
 C       -14.3543126278        3.8571727367       -0.4725236579
 O       -13.6483459569        4.8456614888       -0.4232182513
 C       -15.5561798486        3.4891425275        0.6249602638
 C       -15.1448103611        4.1257003290        2.0164842964
 C       -13.9200786299        3.3383461845        2.5633910415
 O       -13.2510313901        2.7095725753        1.8402787241
 C       -13.8665529686        3.2043698374        4.2147653703
 C       -13.1290679354        4.4541646895        4.9577279365
 O       -11.9523591694        4.3356930746        5.1886851116
 C       -13.9692255719        5.7120563015        5.0612632834
 C       -13.4605276764        6.9884327488        5.8639331922
 C       -14.6559882705        7.8421454414        6.1953116759
 O       -15.7415509572        7.3770151818        6.2389680556
 C       -14.4138459609        9.3353326559        6.4466065475
 C       -13.7079294649        9.6229479283        7.7110830652
 O       -13.2351801064        8.6903957644        8.3107892809
 C       -13.4669824377       11.0247030598        8.1882658942
 C       -13.4804740438        9.9969768841        5.3998608491
 C       -15.8763048774        9.9376668153        6.3819633838
 C       -15.2413153978        2.8766184203        4.7517737903
 C       -13.0130167934        1.9408781381        4.7616563044
 C       -13.5878995131        3.8723598905       -2.9218849461
 C       -15.6889922012        2.5712045013       -2.2324173607
 C        -9.1477591205       -1.1143776091       -0.4362032037
 C        -7.4182140147        0.5274047372        0.1688181455
 C        -3.4628293349       -1.1828083681       -5.5040736832
 C        -2.5806106317       -0.5839375257       -3.2438090364
 C        -7.1200704356        4.8812212535       -5.0807474545
 C        -4.8762613219        6.0544120984       -5.4058784007
 H        -5.7786189399        8.2132510363       -2.7546187373
 H        -4.2921722202        7.3791490229       -3.3369550744
 H        -4.7996295672        7.2335735875       -1.6700853377
 H        -2.8366816112        4.4381876617       -4.6355559401
 H        -3.8232162793        3.4207369050       -5.6630486982
 H        -3.0819257680        2.3489127391       -2.8829688559
 H        -1.9304772193        2.0114133650       -4.3557348815
 H        -6.1953461617       -1.8579807649       -4.8884325017
 H        -6.6591723415       -0.1698116090       -4.8838092423
 H        -7.4304783013       -2.1091900378       -2.4973268456
 H        -8.4815569447       -1.3750752894       -3.8011700909
 H       -11.3046564909       -0.0895942661       -0.9056272856
 H       -11.0755309255        0.7755536587       -2.4251209259
 H       -11.4730697815        2.9196798474       -1.1406290194
 H       -11.7633699441        1.9878836363        0.2092447051
 H       -15.5141687252        2.3818718178        0.7514378732
 H       -16.5612785468        3.8600358071        0.3873830860
 H       -15.9619858213        4.1514818437        2.8402695531
 H       -14.8474395594        5.1961853471        1.9688082083
 H       -15.1001894079        5.5646162110        5.4498152887
 H       -13.9644183093        6.0019863842        4.0393781981
 H       -12.7091961881        7.5118078532        5.2204960544
 H       -12.8363310099        6.5697041705        6.6317240788
 H       -14.2297454047       11.7381732340        8.1676343830
 H       -12.6365500189       11.4615351387        7.6446060135
 H       -13.3212154926       10.9390744532        9.2612589273
 H       -12.4912254501        9.9987800171        5.7494234752
 H       -13.8159686156       11.0184503999        5.1918350944
 H       -13.3328645994        9.4092319876        4.4589017224
 H       -16.4897606778        9.8511121392        7.2335312335
 H       -16.3170449277        9.5521952622        5.4898486722
 H       -15.7897180810       11.0037659985        6.3779767456
 H       -15.6096274359        2.1217719155        3.9695466401
 H       -15.8681595217        3.7421372266        4.5702188197
 H       -15.1388631223        2.4054750530        5.7221244051
 H       -11.9836256962        2.0428208283        4.5485624179
 H       -13.3161021285        0.9362763240        4.2965171705
 H       -13.2060328294        1.9317875843        5.7656644833
 H       -13.7382964683        3.5245781336       -3.9254183539
 H       -12.5290224872        3.9367587869       -2.9898065897
 H       -13.7920064242        4.9398908632       -2.7601237409
 H       -15.6837932767        2.4933315568       -3.2727085051
 H       -16.4819639510        3.2701372867       -1.9013944419
 H       -15.8351655436        1.5805193128       -1.7410243320
 H        -8.5537373838       -2.0111019825       -0.0757213195
 H        -9.7922425368       -1.3465498561       -1.3605699114
 H        -9.8094401824       -0.8726872509        0.4163517125
 H        -6.5105183595       -0.0837594343        0.4651088933
 H        -8.0057570612        0.6420451652        1.0687157905
 H        -6.8649382043        1.4838566720       -0.1412410219
 H        -3.6358820996       -0.4655982629       -6.3724988115
 H        -4.1400565640       -2.0032361249       -5.5908549409
 H        -2.4293259774       -1.5582853327       -5.4825190158
 H        -1.5517332465       -0.5301316702       -3.6286572665
 H        -2.6017927245       -1.5958746836       -2.8853115680
 H        -2.5620775671        0.0739894911       -2.4336229825
 H        -7.9431247146        4.8907370625       -4.3103272862
 H        -7.0964703614        4.0265182538       -5.6019861664
 H        -7.3722252841        5.6493737406       -5.7272585069
 H        -5.2406837870        6.9010866648       -5.9167858563
 H        -4.4870200562        5.3052071518       -6.1172377681
 H        -3.9607006428        6.4140245924       -4.9897764226
 Na       -7.4644277374        3.4239321773       -1.9828085338
