117

 C        -5.5909798048        7.3226401802       -2.7529304357
 C        -6.2209468329        5.9801285485       -3.0747823682
 O        -7.0160288106        5.4739909657       -2.3087625715
 C        -5.6374787250        5.1747994758       -4.2766636569
 C        -4.7600957174        3.8028189417       -3.8188957045
 O        -5.4622315226        3.0412052372       -3.2240999461
 C        -3.4145081563        3.3896480083       -4.2920778641
 C        -2.9871259924        1.9331008951       -4.1928988121
 C        -4.0027293653        0.8086214920       -4.7909990396
 O        -4.7969942851        1.0661246659       -5.6383784192
 C        -3.8937238294       -0.5945086694       -4.1081134459
 C        -5.1918973866       -0.6030272742       -3.1623828719
 O        -5.2467450758       -0.1891495341       -1.9983099739
 C        -6.4463669069       -1.2826979578       -3.8006462491
 C        -7.6563080013       -1.3166215811       -2.7817685788
 C        -7.8625954424        0.0986768699       -2.2486637778
 O        -7.8130390734        1.1064187700       -2.9730854586
 C        -8.3331475239        0.1242218245       -0.7682061772
 C        -9.4067619987        1.3674521949       -0.8210306442
 O        -9.0676670641        2.4634784123       -0.3996467066
 C       -10.8177339854        1.1127254631       -1.2903825600
 C       -11.8283439106        2.1533529833       -0.9036086239
 C       -13.1552760807        2.0331877720       -1.5827043593
 O       -13.4645281086        0.9141512782       -1.8903975616
 C       -14.1528165659        3.1804381354       -1.7919482772
 C       -14.1490463503        3.9809432407       -0.5420667524
 O       -13.2388231580        4.7776551492       -0.3257485234
 C       -15.2141432163        3.8171994038        0.5540502813
 C       -14.7918292885        4.2184764615        1.9878092063
 C       -13.9817005252        3.0856950286        2.6830820093
 O       -13.3993637262        2.2405017744        2.0148124754
 C       -13.7339531148        3.1084212116        4.3172788925
 C       -13.1951736399        4.5444206293        4.8476387448
 O       -12.0181222227        4.6579708516        4.9806949279
 C       -14.1440724180        5.6989780380        5.1163819080
 C       -13.4820124425        7.0272571851        5.2360137426
 C       -14.5673551784        8.0404035477        5.9367352186
 O       -15.6511285029        7.6679276901        6.1487368830
 C       -14.2627286607        9.6190648882        6.1614274499
 C       -13.7892123390        9.8489104967        7.7215805475
 O       -13.7633222636        8.9234648938        8.4642138066
 C       -13.9078129430       11.2980547800        8.2394507438
 C       -13.2245691777       10.2296896635        5.0485537933
 C       -15.5868830810       10.2728714752        5.9725268536
 C       -15.0817332200        2.9294533462        5.1741521884
 C       -12.8996801931        1.8633036079        4.6928667478
 C       -13.6736631923        4.1086937225       -2.8597970750
 C       -15.5340835269        2.7649433751       -2.1688392172
 C        -9.0860430493       -1.0763177991       -0.1526861375
 C        -7.1330703548        0.6049965394       -0.0020435222
 C        -4.0630068252       -1.6111953901       -5.3224354528
 C        -2.6789471041       -0.7294677741       -3.2676359540
 C        -6.9439804260        4.6459199740       -4.9519605270
 C        -4.7067793178        5.9507056676       -5.1880591652
 H        -6.4749987369        7.9559353873       -2.6434521878
 H        -4.9514365303        7.8021617569       -3.5518993200
 H        -5.1712307862        7.3189673554       -1.7514104616
 H        -2.6661682301        3.9503070594       -3.7342951145
 H        -3.3340014769        3.6988436107       -5.2940220755
 H        -2.8007653135        1.5516016697       -3.2065181407
 H        -2.2158398313        1.8806812566       -4.8603941731
 H        -6.1284361041       -2.2885028479       -4.0918161505
 H        -6.7801449041       -0.9251875639       -4.7613345952
 H        -7.4800477245       -2.0216296581       -1.9464807061
 H        -8.6442450705       -1.4304659801       -3.2807256611
 H       -11.2782250693        0.2232814581       -0.9157532737
 H       -10.9131252201        1.1581765988       -2.3278472853
 H       -11.3583118172        3.1764608940       -0.8223053828
 H       -12.0193438234        2.0586245954        0.2229111486
 H       -15.3116839952        2.8216060948        0.6364010787
 H       -16.0828328254        4.3025525301        0.1481237363
 H       -15.5592309047        4.1460763989        2.7965363708
 H       -14.3893675092        5.1644078058        2.1690220062
 H       -14.7431068933        5.4608420549        6.0154793212
 H       -14.9280832804        5.8536355164        4.3780184258
 H       -13.2555995445        7.2174465005        4.1789767330
 H       -12.5052013826        7.0653395158        5.7624099422
 H       -14.8664365990       11.4052495891        8.7781871547
 H       -13.7747462710       12.1262126305        7.5387490185
 H       -13.1623138687       11.5247907435        9.1168321614
 H       -12.3669311168        9.6941802672        4.7403511194
 H       -12.9984440059       11.2369167286        5.3879633085
 H       -13.7876345600       10.2421162511        4.0536465078
 H       -16.4264642591        9.9072701140        6.5759216540
 H       -15.9022374905       10.1574966228        4.9049918723
 H       -15.4161224400       11.3490927255        6.3438619356
 H       -15.3935048723        1.8496865538        5.1150832167
 H       -15.7749884990        3.6177747284        4.7390209465
 H       -14.6714661412        3.2111358938        6.1092897300
 H       -11.9653536817        1.8704180480        4.0900559998
 H       -13.5140333380        0.9521395923        4.2812404580
 H       -12.8424000726        1.7222497639        5.7144871372
 H       -13.2539379524        3.5766470579       -3.7755069919
 H       -12.8905917132        4.8122065795       -2.5674176960
 H       -14.3610016193        4.7543406037       -3.3637146053
 H       -15.4535286391        1.9004883200       -2.8032798386
 H       -16.0140105384        3.6212028596       -2.6690375438
 H       -16.0771738563        2.4672119832       -1.2818837585
 H        -8.3831324042       -1.9295225712       -0.0904799858
 H        -9.8768499952       -1.5389613552       -0.8769193115
 H        -9.5429699916       -0.7300605572        0.7775479824
 H        -6.3191645046        0.0021701985       -0.2681836427
 H        -7.2291782773        0.3720243505        1.0184345639
 H        -6.6705471803        1.5519264917       -0.1562658094
 H        -5.0985812771       -1.8622634158       -5.7249942412
 H        -3.4871451327       -2.4537788253       -5.1119797637
 H        -3.5220547740       -1.0075509555       -6.0445731064
 H        -1.7498962859       -0.2556956379       -3.6394262229
 H        -2.4201805529       -1.7279781085       -3.0603993067
 H        -2.8206442065       -0.2424526782       -2.4013396500
 H        -7.1051704034        3.5099568959       -4.6090321346
 H        -6.7942837679        4.7769597084       -5.9853568423
 H        -7.9243464688        5.1571957532       -4.7734736858
 H        -5.0817687915        6.9435515905       -5.3707605644
 H        -4.4860079989        5.3968083638       -6.1701709555
 H        -3.7797974995        6.2212267232       -4.7795678927
 Na       -7.5390693826        3.1782767531       -2.1910242463
