117

 C        -5.7416099210        7.3464467914       -2.6894212755
 C        -6.1663266021        5.9211690467       -2.9480377964
 O        -7.1429368197        5.4296389565       -2.3850808973
 C        -5.6030061668        5.0449713901       -4.2667295541
 C        -4.9199144461        3.7203800273       -3.8155565187
 O        -5.4098973685        2.8396496961       -3.1067484693
 C        -3.4074539584        3.4634183533       -4.3808889803
 C        -3.0562599660        1.8682646683       -4.1789518061
 C        -4.0969550890        0.8294239211       -4.7503993620
 O        -4.5986085195        1.0393194573       -5.8808875054
 C        -3.9371488435       -0.6551532665       -4.1126639975
 C        -5.1793557650       -0.8348621884       -3.0819507083
 O        -5.1526598953       -0.2228015018       -2.0721590093
 C        -6.5262178105       -1.3618010716       -3.7297313755
 C        -7.8287560275       -1.4652388270       -2.8338757829
 C        -8.0333656432        0.0048900665       -2.2895820133
 O        -7.7718270670        0.9377256430       -2.9621196080
 C        -8.3586006566        0.2212616020       -0.6846975917
 C        -9.3632083907        1.4176020929       -0.7037309486
 O        -8.9883586754        2.4410730727       -0.2487363098
 C       -10.8091562492        1.0884864741       -1.1296710398
 C       -11.7969206872        2.2507358416       -0.7792308888
 C       -13.1613430057        2.0757171229       -1.5544958305
 O       -13.4413867761        1.0185608543       -2.0171462496
 C       -14.2386249669        3.3846889623       -1.8113531451
 C       -14.0202212279        4.1479447387       -0.4486246455
 O       -13.0150037818        4.7653326015       -0.2598661245
 C       -15.1527624617        3.7924252374        0.6325070455
 C       -14.7670625809        4.2099869749        2.0468055554
 C       -13.9587706039        3.0393965613        2.7328100702
 O       -13.5514375553        2.2258990946        2.0148269269
 C       -13.7049552875        3.0480280385        4.3512880873
 C       -13.1299198113        4.5957228521        4.7208542321
 O       -11.9585111999        4.8280559673        4.8490865359
 C       -14.2027197411        5.7004288484        5.0657764441
 C       -13.5967044999        7.1700934542        5.1555966385
 C       -14.5652248320        8.1743836063        5.7790214786
 O       -15.6320952185        7.7506095324        6.1679367991
 C       -14.2042792137        9.7232366990        6.0379614991
 C       -13.9409406144        9.9361174130        7.6570117608
 O       -13.8343130921        8.9532952318        8.3651037707
 C       -14.0040336686       11.3058295361        8.1892859563
 C       -13.0534081560       10.1315983933        5.0972029123
 C       -15.5816316241       10.3706893572        5.7659997101
 C       -15.1401683309        2.8713557478        5.1089224408
 C       -12.7595528973        1.9060068266        4.8965517209
 C       -13.6040510803        4.2508498214       -2.9665778349
 C       -15.7033630667        2.7136892638       -2.1667608251
 C        -9.1938314592       -0.8001088446        0.0671864947
 C        -7.1407438883        0.7547813022        0.1686421358
 C        -4.0593244322       -1.7300826764       -5.2140079020
 C        -2.6175631788       -0.8334584616       -3.4422640752
 C        -6.8665186729        4.5109788541       -5.0932979167
 C        -4.6582571771        5.8964124387       -5.1714933885
 H        -6.5425382933        8.0120391971       -2.5883487541
 H        -5.0794116864        7.7596457726       -3.4544265312
 H        -5.2607153848        7.2389287171       -1.6123209743
 H        -2.6507980524        4.0094653226       -3.8589050553
 H        -3.3809587538        3.7267428076       -5.4422128685
 H        -3.1229339777        1.5357546946       -3.1922470050
 H        -2.0563146235        1.5990292346       -4.7922411338
 H        -6.2475993084       -2.4416721003       -4.0783016284
 H        -6.6925642320       -0.9601673841       -4.6857568635
 H        -7.6593621443       -2.2076624819       -2.0418402763
 H        -8.8313734693       -1.5594925113       -3.4383504230
 H       -11.3241023024        0.2694238003       -0.7737346886
 H       -10.7873359422        1.0782329889       -2.2357018477
 H       -11.2139473450        3.1279699509       -0.8213941788
 H       -11.9887043859        2.3108606781        0.3575100761
 H       -15.3862858772        2.6726432179        0.6090286058
 H       -15.8953452179        4.3362046834        0.2285886114
 H       -15.4442754903        4.6740253994        2.8098292406
 H       -13.9567269354        4.9605994340        1.9945181039
 H       -14.4897518133        5.4700518779        6.2279056377
 H       -15.1711950100        5.6398497583        4.6558397287
 H       -13.3814274734        7.4787131939        4.0783798297
 H       -12.6549436251        7.2054846832        5.6993328348
 H       -14.7096859985       11.5861555686        8.9476796568
 H       -13.8555748675       12.1553670571        7.4666283509
 H       -13.0572262616       11.3702377442        8.7175866958
 H       -12.4821942423        9.3553338026        4.5652817071
 H       -12.3385598336       10.8089645278        5.6538339614
 H       -13.4820339701       10.6366705554        4.1983600864
 H       -16.2562929392        9.6597879824        6.3438389838
 H       -15.9792672496       10.2716243758        4.7191440953
 H       -15.7721011591       11.2957933818        6.2773728910
 H       -15.2976798427        1.7982284930        4.8544466958
 H       -15.9165054644        3.6090576815        4.7061498687
 H       -14.7813157599        3.0061061391        6.1435019718
 H       -11.8661844701        2.2226329541        4.5544823175
 H       -12.9580677830        0.8554785048        4.5376032502
 H       -12.8477877563        1.8806684500        5.9960323647
 H       -13.1418372475        3.8110640798       -3.7468589086
 H       -12.9668134105        5.0425244897       -2.6208466143
 H       -14.3680879823        4.8375767136       -3.6577369163
 H       -15.4713470924        1.8379085750       -2.7122046731
 H       -16.3588119326        3.4214775469       -2.7046629667
 H       -16.1707153723        2.3174139907       -1.2125364919
 H        -8.4794959221       -1.7298010347        0.3542356074
 H        -9.8335546901       -1.3367534751       -0.6073244752
 H        -9.7902475233       -0.2526315323        0.9212020742
 H        -6.2611947867        0.0564225150        0.2874896592
 H        -7.4226271264        1.0040067639        1.1391265323
 H        -6.5714495562        1.5655993960       -0.3429627920
 H        -5.0835152167       -1.9880406653       -5.5023885336
 H        -3.5289546317       -2.5954612989       -4.7808082042
 H        -3.4811478897       -1.3275370674       -6.0517753466
 H        -1.8846517302       -0.6023400133       -4.0542617857
 H        -2.5213007634       -1.7811611175       -3.0926251003
 H        -2.3877965584       -0.1642839240       -2.5845833556
 H        -7.0161155872        3.4721933647       -4.8368922726
 H        -6.7671404446        4.7429805110       -6.1322669767
 H        -7.8024502741        4.9988193718       -4.8298588289
 H        -5.1720455065        6.6831115437       -5.6780960864
 H        -4.1900149502        5.2948836443       -5.9153391909
 H        -3.8839416175        6.4745017469       -4.6616675135
 Na       -7.5374526563        3.1315506371       -2.2219147494
