117

 C        -4.7677263765       11.5798089235        1.2955542512
 C        -5.9760914004       10.9379767344        2.1582193676
 O        -7.1350985243       11.0836592852        1.8503271300
 C        -5.5245652309       10.0106262572        3.3413828817
 C        -5.3711453526        8.4453192052        2.8829295151
 O        -4.5349249605        7.7897098090        3.4057306629
 C        -6.3502370625        7.8187641332        1.8372967771
 C        -5.8414599943        6.3381812988        1.7502805565
 C        -6.8436651720        5.5229403011        1.0159796790
 O        -8.0052307833        5.4991554437        1.4007348629
 C        -6.4649928288        4.7209926319       -0.3477358607
 C        -6.1500224630        3.2210676443        0.2024766657
 O        -5.0493661808        2.7332421789        0.3119018937
 C        -7.4172038248        2.4020862445        0.5639070969
 C        -7.2834972880        0.8897388798        0.2194051806
 C        -8.3073308133       -0.1809256297        0.7664900717
 O        -9.1546475011       -0.6106261595       -0.0495296155
 C        -8.2995166596       -0.7574736665        2.2300548233
 C        -9.0036059771        0.4879789269        3.0974998311
 O        -8.3660617591        1.4110305521        3.5295527208
 C       -10.5807041746        0.2452142481        3.3651165636
 C       -11.2874900081        1.5393980955        3.5426375821
 C       -11.1983273749        2.3493737274        2.2038111974
 O       -10.4156383721        1.9109948607        1.3877778157
 C       -12.2398643169        3.4509805951        1.7008949059
 C       -13.1243861535        2.8034340236        0.5849709735
 O       -12.6269408279        2.0707897819       -0.2504323324
 C       -14.6255125686        3.1879472889        0.6214712181
 C       -15.3489680510        3.0218952458       -0.7775925460
 C       -15.2051927078        4.4175281404       -1.5070470897
 O       -14.9076968787        5.4396261743       -0.8962861899
 C       -15.3794885439        4.4616297557       -3.0012484235
 C       -14.1254322687        3.4640453566       -3.4266003965
 O       -14.4396618559        2.4458266341       -4.0111634382
 C       -12.6345910194        3.6994345237       -2.9480246757
 C       -11.5868181415        3.3530220969       -4.0537198845
 C       -10.5190927840        2.4208604147       -3.5384441897
 O        -9.9953411933        2.6914553001       -2.4724346479
 C       -10.1210021024        1.0665516141       -4.2876743651
 C       -11.2173210097       -0.0458227422       -3.8954660225
 O       -11.2991979131       -0.3812258377       -2.7205661477
 C       -12.2983907041       -0.7141095423       -4.8397146602
 C       -10.1095038048        1.0644397434       -5.8179326947
 C        -8.8340249510        0.4617368584       -3.6445772472
 C       -16.6921143695        3.7665677516       -3.4655743254
 C       -15.1720277355        5.8230146206       -3.6847855246
 C       -13.1142840001        4.0919767942        2.8124469239
 C       -11.5316096559        4.5301449652        0.8240872723
 C        -9.0228826160       -2.1381610788        2.3098090710
 C        -6.8373799488       -0.7442650485        2.7931244105
 C        -7.5876141562        4.6162523169       -1.4679194297
 C        -5.0464559080        5.1790751905       -0.8822440452
 C        -4.3355544978       10.6060158171        4.1138502248
 C        -6.8327805963       10.0991097445        4.2081340822
 H        -4.2890353110       12.3578725901        1.9114285281
 H        -5.0364074652       12.2357963063        0.4255106164
 H        -3.8986746529       10.8725320251        1.0534757949
 H        -6.2284952500        8.4420885456        0.9218577026
 H        -7.3277645185        7.8620653852        2.2840896665
 H        -5.6788875152        5.8861041105        2.6915847014
 H        -4.9676056972        6.2934931912        1.1321103806
 H        -8.2750087060        2.9537230238        0.2038146025
 H        -7.5667911897        2.4443788802        1.6996927009
 H        -6.2851109886        0.4555837926        0.6561968391
 H        -7.2438669615        0.7537220556       -0.8637794608
 H       -10.5818080469       -0.3707687039        4.2433748234
 H       -11.0920308258       -0.3119997588        2.5888069926
 H       -10.6965439937        2.0266673538        4.2486621797
 H       -12.2994131593        1.5082925142        4.0126163158
 H       -14.8299789198        4.2418566608        0.9644763690
 H       -14.9739236415        2.5203929700        1.4923340142
 H       -16.3903279899        2.7797301650       -0.7355507139
 H       -14.8764467564        2.3036438593       -1.3628996037
 H       -12.5501267669        3.0301057333       -2.0981264730
 H       -12.4564839400        4.7199783821       -2.5768557049
 H       -11.2523041406        4.3951075104       -4.4187353079
 H       -12.0986295620        2.7400514760       -4.8697767976
 H       -12.0609455755       -1.7525184318       -4.9878235618
 H       -12.2845760218       -0.1387321370       -5.8520799933
 H       -13.2891178212       -0.6202630444       -4.3546278654
 H        -9.3051888808        1.7035067147       -6.2816677927
 H       -11.0414082253        1.4125296335       -6.2660129476
 H        -9.9762391649        0.1395440973       -6.3024251452
 H        -8.7006158505        0.4455425793       -2.5491652105
 H        -7.9842773247        0.9172539061       -4.1083188578
 H        -8.8882459200       -0.5351981624       -3.9119168454
 H       -16.6277505925        2.6381164449       -3.4398198847
 H       -16.9790426723        4.1338946524       -4.4670578810
 H       -17.4458428208        4.1006037521       -2.8199188529
 H       -15.1474298190        5.6772313438       -4.7414288115
 H       -14.2035193464        6.2486864148       -3.3363771540
 H       -15.9089689112        6.4598733256       -3.4612752043
 H       -12.4550321069        4.2125030840        3.6436129851
 H       -13.8247252922        3.3698781720        3.2268569210
 H       -13.5725254986        5.0305606767        2.5887774831
 H       -10.6892181358        4.9925758563        1.3829334420
 H       -12.2778254565        5.2210902947        0.5220013623
 H       -10.9811560756        4.1286263828       -0.0077633852
 H        -9.0620069868       -2.3879512169        3.4228573324
 H        -8.3416723149       -2.8037589734        1.8153012047
 H        -9.9846222334       -2.1899152540        1.9168691561
 H        -6.1346434926       -1.4155507746        2.3902861881
 H        -6.9689273618       -1.0222295801        3.8211203013
 H        -6.3118309182        0.1961632394        2.7695447585
 H        -7.3483385571        5.1289372787       -2.3348608972
 H        -8.5530241522        5.1216685936       -1.2476807027
 H        -7.7964842340        3.5492710141       -1.6676574972
 H        -4.9353542241        6.2653011331       -0.7850047100
 H        -4.7939725200        4.9092098988       -1.9401451523
 H        -4.3567818806        4.7560450452       -0.1977627288
 H        -3.3332463006       10.5315014495        3.7157423692
 H        -4.2855381525       10.2501268483        5.1434695213
 H        -4.4219772312       11.6975616291        4.0858575191
 H        -7.7014332925        9.9539372692        3.5554234002
 H        -6.7880396342       11.0678280098        4.6825197569
 H        -6.9595107994        9.3782147887        5.0378321043
 Na      -10.6178510612        1.0964419634       -0.9013687191
