117

 C        -5.8473427787        7.1710667813       -2.6748341173
 C        -6.2007341440        5.7353592702       -3.0645338780
 O        -7.1595243472        5.3222137367       -2.4335165774
 C        -5.5995747621        4.9125922053       -4.2585967210
 C        -4.9345409497        3.6441912218       -3.7914597139
 O        -5.3637421786        2.8252836673       -2.9772757378
 C        -3.6132017152        3.2788753533       -4.5015746899
 C        -3.1421686556        1.8503136413       -4.0204478333
 C        -3.9041989716        0.7698153734       -4.8750043060
 O        -4.4641456859        0.9755600768       -5.9278093237
 C        -3.9610969693       -0.6740984054       -4.2271256261
 C        -5.3066269472       -0.7510776322       -3.2066774543
 O        -5.0943379191       -0.3788140032       -2.0696005118
 C        -6.5909028857       -1.5898552933       -3.6008678833
 C        -7.8045689033       -1.4948815999       -2.7117017934
 C        -7.9940087989       -0.1228141422       -2.0655441453
 O        -7.8553459831        0.7883405374       -2.8853814973
 C        -8.4744170807        0.3057149063       -0.6314645987
 C        -9.4988000817        1.6235228983       -0.5346049882
 O        -9.0470940137        2.7549290672       -0.2820310886
 C       -10.8386554139        1.3136792238       -1.0434420478
 C       -11.9694365316        2.4618175969       -0.8037898559
 C       -13.1545439880        2.1741658763       -1.6160963439
 O       -13.4485951050        1.0917021955       -2.1875964715
 C       -14.0589831289        3.3791708785       -1.7360631780
 C       -14.0662023870        4.1938619591       -0.3556303435
 O       -13.0353166889        4.7608807360       -0.1068604986
 C       -15.0121145287        3.9379068466        0.7560131150
 C       -14.6134695969        4.3187001233        2.0964019426
 C       -13.8849004416        3.0485107164        2.8513181475
 O       -13.5812293426        2.0097150775        2.2377834006
 C       -13.6910719162        3.2328510181        4.3949228895
 C       -13.1922777613        4.6311409928        4.7386089138
 O       -11.9611296308        4.8296659895        4.5783207191
 C       -14.1518458871        5.6956470080        5.1302929201
 C       -13.5709119179        7.1474759784        4.9976589234
 C       -14.5912641486        8.1269220338        5.7152074426
 O       -15.6994952738        7.7687286713        6.2248033376
 C       -14.3268302413        9.6478400361        5.9377850219
 C       -14.0709712162        9.8988594884        7.4505006548
 O       -13.8732427579        8.9553496111        8.1965223037
 C       -13.9629040022       11.3390708924        8.0242451044
 C       -12.9843719883       10.1652383455        5.3486644120
 C       -15.5333481809       10.6399703127        5.4723274023
 C       -15.1461355257        2.8276542407        4.9367409229
 C       -12.6664796615        2.2895420224        4.8852798575
 C       -13.6468413518        4.2137708437       -2.9588830350
 C       -15.4288327990        2.8646481160       -2.0975944667
 C        -9.0034530257       -0.9281001734        0.2638655839
 C        -7.1670429890        0.6944946281        0.1649606305
 C        -4.0511271997       -1.8667559367       -5.3436717408
 C        -2.5976239653       -0.9596087582       -3.4517240988
 C        -6.7087370707        4.4735731880       -5.2218808138
 C        -4.7794439631        5.8841579044       -5.0567027423
 H        -6.6885542318        7.9143422998       -2.5236878520
 H        -5.2046851301        7.7071840105       -3.3495217533
 H        -5.4057911930        6.9513943243       -1.7337086117
 H        -2.7667622644        3.8852499832       -4.1525316814
 H        -3.7158089097        3.3678318222       -5.6273271921
 H        -3.4577480664        1.6101215963       -2.9553610256
 H        -2.0207343246        1.8740615043       -4.3111274533
 H        -6.4774120448       -2.5770151561       -4.0593713551
 H        -6.8368005575       -1.0934951150       -4.5927059345
 H        -7.7629404716       -2.3308247465       -1.9804286532
 H        -8.7216756349       -1.4277954926       -3.3276326397
 H       -11.3198786505        0.4996134777       -0.4510376242
 H       -10.6985694224        1.0250157524       -2.1656945339
 H       -11.4584778850        3.3819647171       -0.9925967016
 H       -12.1385651811        2.6699444875        0.1931874144
 H       -15.2817540627        2.7984767197        0.7444556150
 H       -15.9358808384        4.5692534473        0.4188211682
 H       -15.4524006571        4.6871646670        2.6882482783
 H       -13.8307688024        5.1558653836        2.2666861156
 H       -14.6375606217        5.7275499172        6.1072842944
 H       -15.1190290568        5.4416637530        4.5423918383
 H       -13.5462620173        7.5152089197        3.9460967913
 H       -12.5809215083        7.2289560251        5.4416085462
 H       -14.7133974024       11.3817599810        8.8191433836
 H       -14.1208689759       12.2109470210        7.4104893552
 H       -13.0427122103       11.6422745864        8.4680513726
 H       -12.4828783039        9.3446533911        4.7185629964
 H       -12.2731716735       10.4142173580        6.1732740480
 H       -13.0548633559       10.9351044498        4.6028192154
 H       -16.4902579506       10.3458565310        5.9166385084
 H       -15.7201077939       10.5730178397        4.4114434389
 H       -15.3499127126       11.6246304645        5.8170914513
 H       -15.1502415645        1.8884413114        4.4526853892
 H       -15.8779658288        3.5673143236        4.4949151360
 H       -15.0651936981        2.7655496883        6.0590125920
 H       -11.6855605056        2.8096583982        4.6582830931
 H       -12.7513297935        1.4025802547        4.4803922527
 H       -12.8749438839        2.1511194913        5.9825290321
 H       -13.3376216938        3.7990711776       -3.9058358184
 H       -12.9965423372        5.0516016869       -2.7542708981
 H       -14.4939548021        4.6843367746       -3.4406613267
 H       -15.3292717617        2.0727786601       -2.8847601936
 H       -15.9972586516        3.7270680524       -2.3946299039
 H       -15.8573166587        2.3603503886       -1.2292188734
 H        -8.2041448534       -1.4932036121        0.6452100886
 H        -9.5574884546       -1.7500838930       -0.2107142876
 H        -9.6070311854       -0.3880109543        1.0403221668
 H        -6.5345192538       -0.0635794714        0.6630602985
 H        -7.3335584592        1.4691403028        1.0245277518
 H        -6.3840567892        1.1052871766       -0.5045009829
 H        -4.9133773917       -1.8268183912       -5.9290910652
 H        -4.0769843168       -2.7531554702       -4.6392768295
 H        -3.1225234202       -1.8527061633       -5.9229824479
 H        -1.8404978077       -0.8937252613       -4.2914653102
 H        -2.5443116356       -1.9586148158       -2.8972612480
 H        -2.1073933745       -0.2825949263       -2.7539429666
 H        -6.9983142168        3.5473982015       -5.0440982643
 H        -6.5456962259        4.7425643109       -6.2825625734
 H        -7.5006928590        5.0956842887       -4.9756748936
 H        -5.3243617427        6.7059045731       -5.5357742967
 H        -4.3764317022        5.3666292988       -5.8528674723
 H        -3.9482950884        6.3628865464       -4.4881799395
 Na       -7.5660089635        3.0885981229       -2.1869736467
