117

 C        -5.9721112040        6.8879842332       -2.4668050577
 C        -6.4344705341        5.5912440524       -3.1032832758
 O        -7.4502359373        4.9643750035       -2.7481621149
 C        -5.7030838374        4.8787493114       -4.3299957476
 C        -5.0168792331        3.6523284530       -3.6691043972
 O        -5.2939935356        3.0504660065       -2.6172560574
 C        -3.8215652162        2.9462567734       -4.4526856686
 C        -3.5034817625        1.5262561654       -3.9172646081
 C        -3.8853540408        0.3935937125       -4.8361682623
 O        -4.1512134098        0.5662160198       -6.0249783186
 C        -4.1760707123       -1.1292020142       -4.2664345200
 C        -5.2815089173       -0.9819265748       -3.1671014014
 O        -4.9547096803       -0.3646733246       -2.1672690117
 C        -6.6453899675       -1.5072923020       -3.3640626470
 C        -7.2575775687       -1.3727497928       -1.9808864110
 C        -7.9251751812       -0.0384431289       -1.9242619562
 O        -8.0279841913        0.6294333348       -2.9019631675
 C        -8.3291325642        0.3671670984       -0.4505243857
 C        -9.3610842678        1.4137854098       -0.6136266414
 O        -9.1135172774        2.6010275169       -0.5053787941
 C       -10.8913660608        1.1092055421       -0.6837778368
 C       -11.7385235109        2.4083072702       -0.8087174032
 C       -13.0672860919        2.4064881090       -1.6988933992
 O       -13.1735436129        1.4371746971       -2.4422205368
 C       -14.0267769454        3.5927200640       -1.5979693869
 C       -13.9471394639        4.3563167659       -0.2867715183
 O       -13.1950738362        5.3047146256       -0.2458825730
 C       -14.9271146192        3.9085538693        0.7766896965
 C       -14.3541481689        4.3382912695        2.1486576595
 C       -13.7212076869        3.1011616790        2.8647381861
 O       -13.6355018597        2.0293672672        2.3203654410
 C       -13.5943826392        3.3263181124        4.4313039335
 C       -13.2022104103        4.8630427138        4.5372274621
 O       -12.1976083468        5.3900132666        4.0087135302
 C       -14.2447989242        5.8000797452        5.3270250325
 C       -13.8883228930        7.2047091143        5.0006599917
 C       -14.7230090780        8.3615042387        5.5833477548
 O       -15.9142949695        8.1168165707        5.9189789318
 C       -14.1202638641        9.8080873431        5.7394742936
 C       -14.2086053061       10.0743284147        7.3070614320
 O       -14.1907236315        9.0817195684        8.0473964305
 C       -14.2164527653       11.4090592685        7.9275952836
 C       -12.6500342950        9.9023464934        5.1610045028
 C       -15.2193416043       10.6322872258        4.8545125755
 C       -14.9087535095        3.0667342681        5.3262228185
 C       -12.4892827781        2.3973325449        5.0607926353
 C       -13.6197525287        4.5585191114       -2.7186236804
 C       -15.4435499163        3.1476551545       -1.9449798017
 C        -8.8407582236       -0.8534959787        0.4590198783
 C        -7.0076743642        0.9498449472        0.3230002966
 C        -4.3617002853       -2.1442275652       -5.4966495029
 C        -2.8252315292       -1.6699364132       -3.5300620231
 C        -6.8261587752        4.3790115887       -5.4549978958
 C        -4.6807220047        5.6714804403       -5.1375453911
 H        -6.7660384443        7.4802052533       -2.0022566842
 H        -5.6352203162        7.5773563787       -3.2133879495
 H        -5.1666030848        6.5748731191       -1.7317371230
 H        -2.9899419694        3.5914546296       -4.3201405355
 H        -4.0062189158        2.8661306350       -5.5254815007
 H        -4.0178134985        1.4173710157       -3.0047058288
 H        -2.3328692445        1.4041466911       -3.8369425080
 H        -6.7142191240       -2.5326931566       -3.8523105716
 H        -7.1168040485       -1.0058868339       -4.1431248452
 H        -6.5823610222       -1.4269501534       -1.1400813416
 H        -8.1409914507       -2.1117270692       -1.9829043875
 H       -11.2502664377        0.6501253248        0.1680291370
 H       -11.1133375103        0.4418895358       -1.4941953311
 H       -10.9154360126        3.1281957111       -1.0106802783
 H       -12.0123120584        2.8105711622        0.2378403493
 H       -15.3249533594        2.9359329436        0.5586201609
 H       -15.6398074522        4.6111566238        0.6815483288
 H       -15.0603900391        4.8783790337        2.7699389167
 H       -13.5876106190        5.0845113610        2.0505330595
 H       -14.1678034211        5.4651712195        6.4463660688
 H       -15.2787057734        5.6208587376        5.2146183442
 H       -14.0753449253        7.1625541593        3.8880441062
 H       -12.8488033072        7.3872920430        5.1736656686
 H       -14.6892954745       11.4865488681        8.9213547432
 H       -14.4801227308       12.3600698466        7.4163627947
 H       -13.1921465959       11.7081549462        7.9189121382
 H       -12.6214247674       10.1154673956        4.0744914883
 H       -12.0390168814        8.9744312546        5.2072373797
 H       -12.0835075538       10.6169971583        5.6867288365
 H       -16.2825550466       10.2935703606        5.1249624632
 H       -15.1055447882       10.2871046411        3.7726393376
 H       -15.1007310608       11.6901516430        4.7225485165
 H       -14.8637144658        2.0323712924        5.3635696330
 H       -15.7537798690        3.6665894780        4.9547818910
 H       -14.6025640651        3.5323129497        6.2635115585
 H       -11.5259291888        2.6507928908        4.6737030346
 H       -12.7895639851        1.4566781061        4.9156465314
 H       -12.4995539862        2.5050549357        6.2178800507
 H       -14.0569518055        4.3839133628       -3.6385032363
 H       -12.5571401883        4.7240353706       -2.8720677319
 H       -14.1393197132        5.5596797051       -2.7010962289
 H       -15.5683910743        3.2399890156       -2.9965717590
 H       -16.1529188522        3.7910698738       -1.4566478959
 H       -15.6043373735        2.0849697885       -1.6830831221
 H        -8.0147688984       -1.6109475594        0.3900635861
 H        -9.8183761854       -1.3026149686        0.0533545334
 H        -9.0274471865       -0.4145806184        1.5296293678
 H        -6.5332332813        0.2802897982        1.0177633196
 H        -7.3025628321        1.7885167454        0.9337983290
 H        -6.2095347686        1.3435013207       -0.2555956224
 H        -4.3828103619       -1.5216990054       -6.3483219834
 H        -5.3664696509       -2.6210794371       -5.3474158456
 H        -3.5665184091       -2.8931973875       -5.5336413005
 H        -1.9451684676       -1.4742968108       -4.0344624070
 H        -2.8969739826       -2.6920160373       -3.4472277743
 H        -2.6368425094       -1.3127140886       -2.5535732867
 H        -7.7354745124        4.2614663770       -4.9635996325
 H        -6.4789025305        3.3373417976       -5.9022261220
 H        -6.9054468882        5.1256374512       -6.3175891028
 H        -5.2030130253        6.5251732001       -5.6014692012
 H        -4.1871067062        5.2462696587       -5.9387821195
 H        -3.9207089432        6.0639717262       -4.3836121224
 Na       -7.5158950054        2.8622870897       -2.0510225636
