117

 C        -5.9786791280        6.7373221206       -2.6170092857
 C        -6.5645737568        5.5077159557       -3.2076936693
 O        -7.6277936706        5.0956562348       -2.7826783389
 C        -5.7266454798        4.8234656634       -4.3278243100
 C        -4.9602106300        3.5210995793       -3.6171489259
 O        -5.3855827385        3.1589822213       -2.5467560649
 C        -3.7807418848        2.6949977714       -4.4300354712
 C        -3.4859670505        1.3331908830       -3.8285308501
 C        -3.8593158816        0.2562345413       -4.9641312153
 O        -4.1282897858        0.5194658448       -6.0763836861
 C        -3.9882916049       -1.2797835246       -4.3649928508
 C        -5.1339016786       -0.9837045966       -3.2045474421
 O        -4.9047796193       -0.2870980274       -2.1884575595
 C        -6.4864409134       -1.7112676388       -3.3313125876
 C        -7.3849882331       -1.6414503877       -2.0203364229
 C        -7.9640694299       -0.1976519480       -1.7680066865
 O        -8.0184875390        0.6009728336       -2.7158576404
 C        -8.3736098871        0.3151871403       -0.3344713396
 C        -9.4890476083        1.5767971036       -0.4254374797
 O        -9.1510325904        2.7953478650       -0.5508995826
 C       -10.9912158124        1.2214336086       -0.5411326742
 C       -11.8785736555        2.4312090680       -0.7083846643
 C       -12.9675566874        2.3901942513       -1.8226735406
 O       -13.1765406579        1.4251139495       -2.5472124844
 C       -13.8913005584        3.6393212109       -1.7726124084
 C       -13.8685027303        4.4826024499       -0.2910090941
 O       -13.2518858773        5.5072331780       -0.0755674258
 C       -14.7880119474        3.9411289569        0.7763330688
 C       -14.4175279282        4.3952139808        2.1740402157
 C       -13.8981354570        3.1572744254        3.0380830213
 O       -13.5178907589        2.1260310338        2.4243875520
 C       -13.5438741040        3.3503970796        4.5376206147
 C       -13.2509073400        4.8455896167        4.6525258954
 O       -12.3370823739        5.2529948847        3.9198121933
 C       -14.1573616070        5.8217019344        5.3904848869
 C       -13.9151136793        7.2404900162        4.9291119158
 C       -14.7801003338        8.2893818869        5.5458343554
 O       -15.9753622313        8.2878146189        5.7231545198
 C       -14.1114877973        9.7583811838        5.7046841804
 C       -14.1754401571       10.1094876178        7.2373989155
 O       -14.3247019767        9.1754546393        7.9767981735
 C       -14.2887803709       11.5893454223        7.7731480001
 C       -12.6453526191        9.9617222642        5.1202716343
 C       -15.0080253450       10.7129854905        4.9514796774
 C       -14.8102363115        3.0466150470        5.4133758860
 C       -12.3171196475        2.5303160489        4.9897284165
 C       -13.5273249763        4.7054552185       -2.8705359457
 C       -15.3958116859        3.0192592746       -1.9891686008
 C        -8.7190568172       -0.8624876535        0.5011478674
 C        -7.2049171540        0.9944712767        0.3342490308
 C        -4.6086850123       -2.2886859717       -5.3578213143
 C        -2.7898915138       -1.8059463810       -3.6962764274
 C        -6.7279431875        4.3085606251       -5.3445849120
 C        -4.7157977859        5.7447424149       -5.0714775520
 H        -6.6899202510        7.1582318676       -1.8120888274
 H        -5.7580113904        7.6566875757       -3.2016310547
 H        -5.1755247234        6.2853097662       -2.1767088252
 H        -2.9894307708        3.4217149519       -4.3886855619
 H        -4.0104718459        2.5148098895       -5.4858557827
 H        -4.0675684753        1.4691982957       -2.8202180270
 H        -2.4189319990        1.1520560634       -3.7308597976
 H        -6.4269593573       -2.6952736035       -3.7673763385
 H        -6.9827331281       -1.2116239987       -4.2517932729
 H        -6.7531474983       -1.6624946380       -1.0354309436
 H        -8.1875643301       -2.4257549160       -2.0587803497
 H       -11.4092365552        0.6246171116        0.3088441500
 H       -11.2285986391        0.5780921249       -1.4066452779
 H       -11.1400864081        3.2535796843       -0.9821575201
 H       -12.2561436379        2.7912861099        0.1726424548
 H       -14.8821564461        2.8857567660        0.5572142448
 H       -15.8473835285        4.4989526351        0.6468403094
 H       -15.1958281235        4.9730284502        2.6361791375
 H       -13.5462138554        5.1621937224        2.1535520786
 H       -14.0411044535        5.5739592113        6.4205594702
 H       -15.3113861292        5.5515827310        5.3156526640
 H       -13.9927768166        7.2175932073        3.7938731364
 H       -12.9068465349        7.5646030569        5.2180672369
 H       -14.8018440008       11.4291204247        8.7205506716
 H       -14.9011850194       12.3104711747        7.2971624819
 H       -13.5031066981       12.3202348969        7.7664868712
 H       -12.6158776175       10.1631070380        3.9914390220
 H       -11.8956408629        9.1445123358        5.1674228355
 H       -12.2081921551       10.7501706219        5.6909638391
 H       -16.0431019487       10.5157503092        5.2784353640
 H       -15.0240744488       10.6796637463        3.8260546727
 H       -14.6156290246       11.7617490332        5.0917529067
 H       -14.7043483996        1.9738555694        5.4522544997
 H       -15.5996543885        3.5359152697        4.8193686698
 H       -14.7528005521        3.6419619432        6.3794263749
 H       -11.4011419829        2.7788967117        4.4581722251
 H       -12.6476308793        1.5037174086        4.9545935038
 H       -12.1891142958        2.7770470478        5.9868149269
 H       -13.8746216850        4.5734366219       -3.9420533449
 H       -12.4931893624        5.0211150623       -2.9182624061
 H       -14.0912304018        5.5135854654       -2.7860871124
 H       -15.5557210885        2.7453161927       -3.0906168850
 H       -16.1314707728        3.7550928235       -1.6864837034
 H       -15.4913731963        2.1387817372       -1.3729631600
 H        -7.7637644154       -1.3788085109        0.6389367010
 H        -9.5100112444       -1.5821660429       -0.0544035433
 H        -9.1222408361       -0.4787068533        1.4386152873
 H        -6.6137365886        0.2646587817        0.8181292108
 H        -7.3803881738        1.7248307640        1.2111537668
 H        -6.4749765536        1.5574272740       -0.2557745040
 H        -4.6191053193       -1.8226950655       -6.3274707219
 H        -5.6465481414       -2.5102501139       -5.0917414762
 H        -4.0417103433       -3.2514489716       -5.3305501254
 H        -1.9064560537       -1.5903286924       -4.3722772362
 H        -2.7138336474       -2.8517223796       -3.4495586420
 H        -2.5850567251       -1.2577248531       -2.8837057861
 H        -7.7122356077        4.4966507428       -4.8990341800
 H        -6.6745262213        3.2668847183       -5.6547086694
 H        -6.6377474524        4.9399261079       -6.1609997557
 H        -5.0558763407        6.5463370058       -5.7235195636
 H        -4.1455576887        5.1414624809       -5.7372984169
 H        -4.0073056063        6.0323800498       -4.3350879384
 Na       -7.4307179748        2.8484504415       -2.1126575673
