117

 C        -5.6960760157        6.4929616764       -3.0617310770
 C        -6.4025679214        5.2416449503       -3.5451644673
 O        -7.5286359433        4.8400246463       -3.0832476400
 C        -5.6203969422        4.4173527652       -4.5595714073
 C        -4.8912176375        3.1557104844       -3.8076298468
 O        -5.4955896526        2.6862466258       -2.8579992641
 C        -3.5563442829        2.4439460463       -4.2495546151
 C        -3.5345324720        1.0345747686       -3.7093448990
 C        -4.2720132118       -0.0191222517       -4.5918310853
 O        -4.8379903879        0.2899026885       -5.6368449651
 C        -4.3950157374       -1.5031700475       -4.0857874635
 C        -5.2850643890       -1.4558233880       -2.8185603323
 O        -5.0352085433       -0.8133308854       -1.8341284146
 C        -6.7974005607       -1.9653305365       -2.9201812734
 C        -7.5147407661       -1.6431141910       -1.5736858434
 C        -7.8618742394       -0.1474774758       -1.4664751331
 O        -7.4631362343        0.5670665403       -2.3711506898
 C        -8.5912581962        0.3330052376       -0.1196490333
 C        -9.6561149180        1.4089005825       -0.5051770326
 O        -9.3026363829        2.5003584301       -0.9392102960
 C       -10.9890387362        1.1493085827        0.1335634911
 C       -11.8620006250        2.3838090351       -0.1598722826
 C       -12.5185312994        2.4630925501       -1.4829348632
 O       -12.2638183747        2.0061307865       -2.5739706719
 C       -13.6879443614        3.6526078021       -1.5693693702
 C       -14.0717047292        4.4836464632       -0.2414905442
 O       -13.6047339679        5.5624324865        0.0486122604
 C       -15.0116909389        3.7091482806        0.7730781983
 C       -14.7849906257        4.1614115516        2.1838188592
 C       -13.7460229609        3.3197345086        2.9537358551
 O       -13.3820120756        2.2243850043        2.5068588445
 C       -13.4027829496        3.7053934778        4.4394117509
 C       -12.9672100356        5.2984585918        4.5408895818
 O       -11.8005675031        5.7300483998        4.4131791055
 C       -14.1272470085        6.3491818711        4.7393712937
 C       -13.5654124075        7.7056398317        5.3853427063
 C       -14.6095485890        8.8085240337        5.0806584105
 O       -15.7754469258        8.4704489527        4.7936227400
 C       -14.1436849711       10.2816388294        5.4112573866
 C       -14.5238523084       10.5388401643        6.9647844841
 O       -14.7102488634        9.5777728955        7.6726106764
 C       -14.7061107274       11.9578742101        7.3574933794
 C       -12.5379383380       10.4710262697        5.2121526583
 C       -14.8962074721       11.3633302711        4.5957753279
 C       -14.6617656535        3.3708729836        5.3568027224
 C       -12.2013192272        2.8035272457        4.8670978962
 C       -13.1871783725        4.9160206128       -2.3598968547
 C       -14.8474471950        2.9952636730       -2.3570723458
 C        -9.1929197857       -0.9667040019        0.6440556423
 C        -7.5869401480        0.9769354295        0.7719979946
 C        -5.0569379494       -2.3296129067       -5.2721177908
 C        -3.1041198176       -2.1959658271       -3.8308488062
 C        -6.5898424953        3.7227049749       -5.6146159504
 C        -4.5227737136        5.1837562854       -5.4069265041
 H        -6.0696937970        7.0727729083       -2.1708771116
 H        -5.8405681214        7.0919197932       -3.9407815061
 H        -4.6215284598        6.4682826081       -2.9921869274
 H        -2.6821662813        2.9143337231       -3.7159768895
 H        -3.2365489693        2.5156508072       -5.3048638898
 H        -3.7207921913        1.1794516119       -2.7300988771
 H        -2.3963923278        0.8184856145       -3.8099724590
 H        -6.9335652257       -3.1256201459       -3.1035260194
 H        -7.2501630285       -1.3653738922       -3.6571255098
 H        -6.9363540617       -1.8920971088       -0.7427822653
 H        -8.4708032764       -2.1868373398       -1.4654730275
 H       -10.7423894344        1.0412488679        1.2357055259
 H       -11.3248219770        0.0867512082       -0.2478506787
 H       -11.2094860685        3.1902291048       -0.0141184491
 H       -12.7710865006        2.4801109809        0.5310425398
 H       -14.8868480058        2.5688867205        0.6038535242
 H       -16.0033356404        3.9677998405        0.5064194203
 H       -15.7814510175        4.1936075627        2.7702905179
 H       -14.2918782607        5.1578343047        2.0858163344
 H       -14.9662449808        5.7423338671        5.1755437807
 H       -14.4002544673        6.7092299676        3.8154757837
 H       -12.6204702204        7.9963720762        4.8496791863
 H       -13.3390214195        7.8540112481        6.4478400499
 H       -13.8546469915       12.5363935227        7.0573483326
 H       -14.6910592098       12.0596459728        8.4419868740
 H       -15.6046143858       12.4334644122        7.1235717047
 H       -12.2285876388       10.6522419031        4.1511163482
 H       -11.8394462788        9.6474745532        5.6186200057
 H       -12.2657519601       11.3319404848        5.8062940824
 H       -15.9803294595       11.0492631732        4.6725413682
 H       -14.5528599515       11.4249621148        3.5318576629
 H       -14.8289087279       12.3254810396        5.0349199138
 H       -14.5547728669        2.3183828704        5.4165946317
 H       -15.6194794655        3.6410516373        4.8414694185
 H       -14.2725340882        3.8788244992        6.2371543358
 H       -11.3016400390        3.1889456508        4.2620205946
 H       -12.3474167580        1.7966402156        4.6225007719
 H       -12.1018185141        3.0132043854        5.9662309332
 H       -12.9701310745        4.7177900723       -3.3911244908
 H       -12.2123170427        5.3523169701       -2.1234404365
 H       -13.7880065841        5.7876837695       -2.2347647355
 H       -14.5415740973        2.9228668503       -3.3847058393
 H       -15.8070160396        3.5464963738       -2.2803546332
 H       -15.0818295745        1.9489325555       -1.9835751959
 H        -8.6098576341       -1.6080523232        1.1554613931
 H        -9.7689158093       -1.5032321344       -0.1587673379
 H        -9.8305291954       -0.5742307020        1.3249954103
 H        -6.9263481694        0.4349106155        1.4660758665
 H        -8.0390795991        1.7700739923        1.4385118169
 H        -7.0152197283        1.7335342695        0.2257728234
 H        -4.6533767228       -1.9480191774       -6.1878774091
 H        -6.1505023886       -2.0832276469       -5.3394579554
 H        -4.9462240297       -3.4188187020       -5.1901607163
 H        -2.5383833878       -2.0686303347       -4.9067767042
 H        -3.1063677762       -3.3667775444       -3.7697909927
 H        -2.5251019736       -1.8265015027       -2.9955672905
 H        -6.7280423257        2.7534319281       -5.3450388296
 H        -6.0861385982        3.6878538169       -6.6105950952
 H        -7.5286465966        4.1881867273       -5.6048316726
 H        -5.1033646912        5.9190094184       -5.9086560093
 H        -3.9522293085        4.5379196040       -5.9815037305
 H        -3.8693484051        5.7853602019       -4.7371062620
 Na       -7.5331816933        2.6622305423       -2.3694594326
