117

 C        -5.0582097669        6.5850702651       -4.0550660786
 C        -5.8426265480        5.1741467088       -4.0960224374
 O        -6.7452857653        5.0424747786       -3.3161442674
 C        -5.3438330155        3.9440229055       -4.8741418810
 C        -4.7515960720        2.8482237883       -3.8552604444
 O        -5.3321045418        2.4476121079       -2.8984652240
 C        -3.3450500887        2.3521315673       -4.0626114159
 C        -3.3113407732        0.7414392963       -4.1221127662
 C        -4.7286504588       -0.0417203854       -4.1849289312
 O        -5.6546058614        0.5375576153       -4.7240852201
 C        -4.7381970120       -1.5534350154       -3.9092826056
 C        -5.6099460640       -1.6696455970       -2.6354373085
 O        -5.0587280272       -1.4073112567       -1.5647151181
 C        -7.0090773855       -2.2443654071       -2.7531503818
 C        -7.6676024223       -2.1062214508       -1.3641655983
 C        -8.0460131058       -0.6159140709       -1.3740227017
 O        -7.8009158655        0.1448152306       -2.2982258354
 C        -8.6876640413        0.0661660224        0.0527813741
 C        -9.7255552426        1.2996402381       -0.2695009628
 O        -9.5412937584        2.0831864226       -1.1669962669
 C       -11.0582799590        1.2654621652        0.4274660400
 C       -11.9018139974        2.5680917920        0.1631761720
 C       -12.3305737095        2.7938974320       -1.2979647156
 O       -12.0293220456        1.9824766682       -2.1603347339
 C       -13.4865530322        3.7992505239       -1.3230275039
 C       -13.9312805986        4.3409413188        0.0646765134
 O       -13.3637454535        5.3703146030        0.3985621614
 C       -15.1711998989        3.7660625308        0.9007438478
 C       -15.1308752994        4.1919666243        2.3850661885
 C       -13.9644740204        3.5240023790        3.2038211540
 O       -13.4790339537        2.5041263913        2.7568995440
 C       -13.4319008013        4.2818090583        4.4728075383
 C       -12.6227392946        5.5534777896        4.2239276382
 O       -11.4714765090        5.5965904210        4.3433435478
 C       -13.4283548436        6.9422700309        3.7843247381
 C       -13.7547135249        7.8235985399        4.9974674611
 C       -14.5930777472        9.0574264814        4.5931768346
 O       -15.5428671050        8.8753219085        3.9131162400
 C       -14.2675523640       10.4770484471        5.2168084224
 C       -14.7235052984       10.5830561779        6.7070123745
 O       -14.7575805967        9.5698093571        7.3888349921
 C       -14.9831380271       12.0455618113        7.2183027592
 C       -12.8119385384       10.6627757124        5.3243862790
 C       -15.0218216832       11.6596070405        4.4154672938
 C       -14.7840530191        4.6670904305        5.2365650398
 C       -12.6860674377        3.2061288916        5.3304433174
 C       -12.9077572243        5.0673043796       -2.1078720599
 C       -14.7176424101        3.0969234446       -1.9518098200
 C        -9.2119090059       -1.0547456462        0.9946982168
 C        -7.3932069685        0.6842761275        0.5663990229
 C        -5.3555932984       -2.2148072725       -5.0468767852
 C        -3.2307884230       -2.0968317777       -3.6763529150
 C        -6.5839607069        3.3525076821       -5.6912224944
 C        -4.2811854983        4.4284187628       -5.9216560297
 H        -5.5433572001        7.4220111615       -4.4717822388
 H        -3.9724571955        6.4568727753       -4.3009883329
 H        -5.0760291028        6.8805286607       -3.0167869321
 H        -2.7261697730        2.7135418732       -3.2219624803
 H        -2.7452978095        2.6293235341       -4.9399786001
 H        -2.8285311065        0.4333307961       -3.0887247708
 H        -2.6076633372        0.4367701415       -4.8377865576
 H        -6.7998620871       -3.2688678376       -2.9067050728
 H        -7.5572182642       -1.6105281969       -3.4595899181
 H        -6.8009799016       -2.1118487507       -0.7030275460
 H        -8.3615512741       -2.7522674697       -0.9012116951
 H       -10.7460149370        1.1901405024        1.5186286118
 H       -11.5682299977        0.2575219848        0.3208158537
 H       -11.3235134010        3.5713317142        0.4313381508
 H       -12.7784058864        2.3745761279        0.7535819069
 H       -15.1146091813        2.7665958991        0.9033881108
 H       -16.1242701946        4.0383750471        0.3718480723
 H       -15.9583458775        3.5574113487        2.7649006481
 H       -15.1269213497        5.2997476963        2.5630766349
 H       -14.2420402825        6.7389219914        3.2076126908
 H       -12.5799408710        7.3415489567        3.1767634462
 H       -12.8586322965        8.1380424027        5.5583199496
 H       -14.2800248584        7.2887800747        5.7534268451
 H       -16.0241868828       12.2602449257        7.3235696466
 H       -14.4158303102       12.7633681795        6.7779429590
 H       -14.7872744005       12.1552986348        8.2862815617
 H       -12.3297396854        9.6823142994        5.5730248101
 H       -12.6016729479       11.3758674020        6.1252532592
 H       -12.2883897127       10.8567010083        4.3475187090
 H       -15.9512386097       11.4139031846        3.9533549068
 H       -14.3522970150       11.7480489583        3.5624571866
 H       -15.1691629189       12.5292489236        5.1231867380
 H       -15.3633522438        3.7229476390        5.1563583789
 H       -15.1668391127        5.3774580329        4.5617087324
 H       -14.4663751920        5.0541324279        6.2237065539
 H       -11.8356942888        2.8600842267        4.8402296694
 H       -13.4774868530        2.3591200440        5.3808653040
 H       -12.4991723801        3.5639303095        6.3618056843
 H       -12.4604250893        4.7535749225       -3.0738302841
 H       -12.1022704702        5.6170426515       -1.7024103742
 H       -13.6507141634        5.8985283716       -2.3424108082
 H       -14.4930458819        2.5463805685       -2.9313006978
 H       -15.5320204390        3.7807091472       -2.1564284941
 H       -15.0284191116        2.3337074228       -1.2574148722
 H        -8.4018217503       -1.7875570956        1.1697546237
 H        -9.9485759803       -1.5676969245        0.5895384936
 H        -9.5124102103       -0.7420962737        1.9641941708
 H        -6.4056080699        0.2562953140        0.3337374189
 H        -7.4113486549        0.8350533360        1.6526888801
 H        -7.2185327464        1.7668780880        0.3168812507
 H        -4.6534055913       -2.6774610235       -5.7550465382
 H        -5.9102726354       -1.4528914089       -5.6275492878
 H        -6.0827487911       -3.0076615264       -4.8536836900
 H        -2.5218997285       -1.5665618358       -4.3300571507
 H        -3.2633547911       -3.2050611297       -3.9957357943
 H        -2.8685306576       -1.9349011539       -2.5514309094
 H        -7.6069710169        3.4669536250       -5.2483338785
 H        -6.2534603688        2.3813569148       -5.7038134818
 H        -6.5126502232        3.5607014399       -6.7337312609
 H        -4.8228438229        5.2452323154       -6.3991955491
 H        -4.1315783067        3.5929650881       -6.6386515009
 H        -3.4421161475        4.7540345173       -5.4317769637
 Na       -7.5748450135        2.5863400408       -2.5338260077
