117

 C        -5.0238785753        6.4862239055       -4.2495731783
 C        -5.7409683500        5.0844435364       -4.0053211824
 O        -6.7073994762        5.0120680995       -3.2801256287
 C        -5.2860015123        3.9101093903       -4.9663167276
 C        -4.7091777865        2.8718649045       -3.9459603310
 O        -5.4039096546        2.5556602267       -2.9263037499
 C        -3.3493448349        2.3077905385       -3.9767590749
 C        -3.2824706135        0.7087860162       -4.0648467148
 C        -4.6195693320        0.0061677400       -4.1537822267
 O        -5.6372408578        0.5119113190       -4.5927369491
 C        -4.7310748038       -1.6006427769       -3.9671015645
 C        -5.5022000585       -1.8419421558       -2.5561053244
 O        -5.0980357806       -1.5085349997       -1.4788722609
 C        -6.9837471251       -2.4103141109       -2.6526330993
 C        -7.8949370137       -2.0482458825       -1.3917396202
 C        -8.1131266905       -0.5800553640       -1.3804277679
 O        -7.9358588294        0.1142357650       -2.3372724387
 C        -8.5712244355        0.1777331362        0.0097389814
 C        -9.5755793487        1.2485759607       -0.3918334144
 O        -9.3139663702        2.1606954881       -1.1488398227
 C       -10.9360945739        1.2839704345        0.4557098745
 C       -11.8460512533        2.4640075710        0.3521037472
 C       -12.4043525016        2.6204534640       -1.1341582835
 O       -12.0248784340        1.9651248346       -2.0500879424
 C       -13.5343007780        3.7658491125       -1.3099837479
 C       -13.9556411377        4.4447493252        0.1463743534
 O       -13.3855757433        5.3321472770        0.6995856567
 C       -15.1078984653        3.7751627638        0.8446500303
 C       -15.1129035942        4.2823699007        2.3029320969
 C       -14.0001593754        3.6219377642        3.1295968351
 O       -13.4804667161        2.5701173500        2.9388946611
 C       -13.6406164718        4.3831539764        4.5032609755
 C       -12.5759150774        5.6289589700        4.1961961614
 O       -11.3762291197        5.4739915657        4.3062235513
 C       -13.2111685947        7.0050834021        3.7496077688
 C       -13.7441671776        7.8370561637        4.8463502523
 C       -14.6576722149        9.1308631171        4.4570607077
 O       -15.6108239784        9.0027495998        3.6795954878
 C       -14.2494011682       10.5388860799        5.1396357202
 C       -14.7558689168       10.6164598039        6.7332075226
 O       -14.8363787577        9.5701869327        7.4079748666
 C       -15.0709936388       11.8810871118        7.4066628794
 C       -12.6767543869       10.8080387762        5.1818744987
 C       -14.9494795189       11.5841291625        4.2284334776
 C       -14.9885448920        4.8451307429        5.2300508032
 C       -12.7439254472        3.4320601651        5.3990505148
 C       -12.9958002695        5.0479706425       -2.0732889445
 C       -14.7606891214        3.2124689132       -1.9763319469
 C        -9.1482110678       -0.9603432607        0.8661939101
 C        -7.3632009569        0.7140480391        0.7192930267
 C        -5.4841292939       -2.3752499254       -5.0748571535
 C        -3.3669338079       -2.1947735759       -3.6541285825
 C        -6.6491181770        3.3606357924       -5.6158789160
 C        -4.2673742822        4.3619321091       -6.0746954526
 H        -5.4285009378        6.9628775545       -5.0651588194
 H        -3.9624236444        6.3802573486       -4.2400574306
 H        -5.3162587004        7.1959828072       -3.4490736905
 H        -2.7395440179        2.6928849219       -3.1407044724
 H        -2.8105876426        2.5961493884       -4.8808820918
 H        -2.7527000562        0.2260885379       -3.1687251458
 H        -2.6403696122        0.4318900754       -4.8947349648
 H        -6.9320256288       -3.4325005116       -2.6612719740
 H        -7.4151388757       -1.8274476665       -3.4896895874
 H        -7.4278913360       -2.5059585791       -0.5011799854
 H        -8.8791375040       -2.4090992650       -1.3584775902
 H       -10.8099747064        1.0510265174        1.5164137020
 H       -11.4770392005        0.3965333093        0.1708844037
 H       -11.2922800292        3.4393607714        0.5827219697
 H       -12.6160935951        2.1904174428        1.1056133571
 H       -15.2640966230        2.6486152552        0.6891292768
 H       -15.8531368412        4.2009128666        0.2721487975
 H       -16.0468429963        4.1215697467        2.7968555710
 H       -14.7149004539        5.2954554481        2.2398078838
 H       -14.0228517383        6.5652174939        3.1435186473
 H       -12.5069520953        7.4886275508        3.0389944505
 H       -12.9720661904        8.2241257724        5.4046781665
 H       -14.3173603249        7.2687405888        5.5851117141
 H       -16.0949538747       11.8976388830        7.6739433594
 H       -14.6493871998       12.8198559063        7.0414878466
 H       -14.7827303332       11.8226521082        8.4392977172
 H       -12.1376689171       10.2995092004        5.9218869555
 H       -12.5425569555       11.8843790283        5.2745960088
 H       -12.2382871720       10.3512885835        4.2176721455
 H       -15.6941685793       11.0743745981        3.6427826231
 H       -14.2549169336       11.8292907573        3.4926806086
 H       -15.4434629664       12.3314603490        4.8087931009
 H       -15.5657717144        3.9754747186        5.4962892888
 H       -15.4224027471        5.4415965422        4.4759192736
 H       -14.6315498553        5.4504052225        5.9771357794
 H       -11.8114471936        3.3284021114        4.8833217032
 H       -13.1982400240        2.5259391524        5.6228224120
 H       -12.5476054397        4.0332377962        6.3943656902
 H       -12.8472961570        4.9603753373       -3.1289807211
 H       -12.0100425909        5.3681671365       -1.7565434143
 H       -13.6206187304        6.0327477155       -1.9778853531
 H       -14.5675361355        3.0203361002       -3.0331497010
 H       -15.6966788078        3.8352003603       -1.9194897318
 H       -14.9241600324        2.2118399918       -1.5571437938
 H        -8.4674802665       -1.7023334608        1.2090867379
 H       -10.0175979648       -1.4846216282        0.2579251510
 H        -9.6608134039       -0.6463252049        1.8116278491
 H        -6.3916045193        0.1668970596        0.8853990531
 H        -7.7400681173        0.9900374014        1.6537978288
 H        -6.9461067202        1.6922153802        0.4279375059
 H        -4.8388398712       -2.3468923830       -6.0050391748
 H        -6.3117595906       -1.7377167546       -5.3313886787
 H        -5.8558455698       -3.3727666587       -4.9798414536
 H        -2.5559710275       -2.0439503975       -4.3902890013
 H        -3.5617800141       -3.2561408055       -3.4780383137
 H        -3.1047074908       -1.7867809330       -2.7848436328
 H        -7.3929594419        3.5406308222       -4.8882060807
 H        -6.5045700307        2.2424426234       -5.8350644731
 H        -6.8685175202        3.7820998353       -6.6690205017
 H        -4.7963627537        5.0671289587       -6.7275271852
 H        -4.0859194530        3.4128117380       -6.6440032058
 H        -3.3851201307        4.7245748270       -5.5382252599
 Na       -7.4601775032        2.4554317204       -2.6175072696
