117

 C        -5.2554363475        6.1187180898       -4.5737785253
 C        -5.7893592192        4.7324140082       -4.1568046742
 O        -6.5753772773        4.6505941420       -3.2174833863
 C        -5.3197849838        3.5130727426       -4.9958549584
 C        -4.5896870128        2.5150279674       -4.0278084120
 O        -5.0595296551        2.4365241514       -2.8473534438
 C        -3.3800189636        1.6181795462       -4.4189900224
 C        -3.4160198100        0.4206872886       -3.5349951955
 C        -4.6184163771       -0.3028684210       -3.9251940854
 O        -5.6297628687        0.2654029890       -4.3598809820
 C        -4.7681935900       -1.8557059581       -3.8171806299
 C        -5.7806472645       -2.0096224193       -2.5440957695
 O        -5.3464982421       -1.6708514036       -1.4917728406
 C        -7.1704919585       -2.6237759433       -2.6836109667
 C        -8.1225554304       -2.0251162445       -1.5345860042
 C        -8.1558597147       -0.5304341797       -1.5124111421
 O        -7.6978982777        0.1807188277       -2.4087484898
 C        -8.3526455468        0.0763398261       -0.1405755737
 C        -9.2627232489        1.4294330419       -0.1796862263
 O        -8.8693251482        2.4628926720       -0.7138795270
 C       -10.6392413741        1.4075185415        0.4352509690
 C       -11.3485454955        2.7553380259        0.1009316350
 C       -12.4652728779        2.6483712648       -0.9197446088
 O       -12.5812234456        1.7491415183       -1.7067891632
 C       -13.5078068878        3.9354519553       -0.9999332732
 C       -13.8483104025        4.3015774420        0.4592508136
 O       -13.2285689818        5.1394514555        1.0630501741
 C       -15.1765482498        3.9298392085        1.0383885261
 C       -15.4167116221        4.4178730272        2.5238028911
 C       -14.1647281277        4.0310451587        3.3788177668
 O       -13.4616860545        3.0483124115        3.2329215914
 C       -13.9659970368        4.8618728253        4.7276861673
 C       -12.8800457752        5.8009474502        4.0899970766
 O       -11.7256459913        5.2578352924        3.9682074635
 C       -13.2820925601        7.1462041219        3.5475358726
 C       -13.4176043065        8.2316122135        4.5646020211
 C       -14.2243803568        9.5017039087        4.0855084178
 O       -14.9606200768        9.2740826048        3.1101328339
 C       -14.2640681728       10.7808568973        4.9714269330
 C       -14.7854440214       10.3636556218        6.4108173241
 O       -15.0212757131        9.2318562683        6.7616628885
 C       -15.1631176067       11.5324438049        7.2392843731
 C       -12.8236730179       11.4201102942        4.9664467163
 C       -15.2215276475       11.7904241106        4.1616740157
 C       -15.1242558732        5.6491135334        5.2045447814
 C       -13.3751021631        4.0682521061        5.8576260091
 C       -12.7962548693        4.9960193648       -1.7452746939
 C       -14.7428885166        3.4235636178       -1.8651283368
 C        -9.0206848398       -0.6969330316        1.0578485688
 C        -6.8793143807        0.6853111200        0.2090552422
 C        -5.5501485307       -2.4042301267       -5.1385417968
 C        -3.4401425129       -2.5597915440       -3.5949570971
 C        -6.5662354613        2.7958532986       -5.4805848042
 C        -4.3154821367        3.8504622207       -6.1470064668
 H        -4.4017879189        5.9970661643       -5.2878665161
 H        -4.9554671436        6.6412144062       -3.7178544690
 H        -5.9608717579        6.6885218724       -5.2272239520
 H        -2.3739025784        2.0336372567       -4.2623639205
 H        -3.5398558426        1.3099785432       -5.4782125348
 H        -3.7594363670        0.6111205527       -2.5124575250
 H        -2.6018982986       -0.3349180290       -3.4850651344
 H        -7.0852089622       -3.6789655075       -2.6769960568
 H        -7.7107078437       -2.1535538201       -3.4815412445
 H        -7.9904858619       -2.4975583146       -0.5708764074
 H        -9.0185672834       -2.4433447729       -1.7978808814
 H       -10.5921334734        1.2285561081        1.5641556578
 H       -11.0780611826        0.4275808128        0.0352568175
 H       -10.6462302001        3.4757865998       -0.3787704173
 H       -11.9432100648        3.1727508068        1.0183557763
 H       -15.3020346936        2.8074901098        0.9268002488
 H       -15.8825297992        4.2497781828        0.4155810157
 H       -16.2581309165        3.8359863224        2.9748322701
 H       -15.5734188403        5.5053768949        2.4803270673
 H       -14.2027307154        6.9819151154        2.9388227526
 H       -12.6929962059        7.3541404762        2.6932938472
 H       -12.5042310890        8.6151841576        4.8103695181
 H       -13.9128137486        7.9000766613        5.4986228308
 H       -16.1960367120       11.7005762536        6.9486184995
 H       -14.5761806634       12.4553418749        7.0314432559
 H       -15.2583716371       11.4416924498        8.2782026028
 H       -13.0476808216       12.4671881817        5.1652737830
 H       -12.3282933709       11.4340139657        3.9243539469
 H       -12.1314886978       11.0172883646        5.7229846741
 H       -16.1419983713       12.1191044012        4.7744001664
 H       -15.3574329098       11.3700092101        3.1328343711
 H       -14.5925487379       12.6719491694        3.9951114732
 H       -15.8667364433        4.9035252697        5.4534538227
 H       -15.3862329484        6.3561201855        4.3735398211
 H       -14.7736612550        6.1781435380        6.0879039573
 H       -12.5625384403        3.4263839289        5.3020563774
 H       -14.1625917210        3.5003516506        6.2704452204
 H       -12.8455477527        4.5658580351        6.6619888251
 H       -12.0291760742        4.8026688649       -2.4869821824
 H       -12.2954109694        5.6951612035       -1.0056783006
 H       -13.4239311528        5.5333321858       -2.3873322095
 H       -14.4820009292        2.8398458111       -2.6957595521
 H       -15.1781809860        4.3666193016       -2.2656972585
 H       -15.5547894394        2.8920001643       -1.3619802995
 H        -8.2999720788       -1.3878775922        1.3482451218
 H        -9.8698743165       -1.3456685576        0.6962047267
 H        -9.3089957826       -0.2848953761        1.9756378053
 H        -6.0083616350       -0.0073396831        0.3631907810
 H        -6.8435092210        1.2321355401        1.1695589493
 H        -6.4357208651        1.3092658713       -0.5935149409
 H        -4.7605841820       -2.7020458066       -5.8556004034
 H        -6.3215994927       -1.8160195581       -5.5866004711
 H        -6.0777912673       -3.3257127780       -4.9210553655
 H        -2.6234033856       -2.1176780748       -4.2611200624
 H        -3.6655468475       -3.6025457282       -3.7713631053
 H        -3.2241017667       -2.4979552731       -2.5156100498
 H        -6.8218827036        2.2000608464       -4.6669465261
 H        -6.4128811980        2.1448263812       -6.3778013171
 H        -7.3656932121        3.4650086181       -5.7302415050
 H        -4.8388867242        4.5503124911       -6.7189818078
 H        -4.2128029805        3.0125003438       -6.7879579522
 H        -3.3334631870        4.1586965725       -5.6927534705
 Na       -7.3517693858        2.7415967101       -2.4990431144
