117

 C        -5.2922860335        5.8669204143       -4.6609971576
 C        -5.9352482266        4.5751656421       -4.3174441014
 O        -6.8981762140        4.5348459787       -3.4820181525
 C        -5.3166885558        3.2297204998       -5.0364051315
 C        -4.6173619165        2.3746532225       -3.8595426417
 O        -4.8904371811        2.4097311507       -2.6626606126
 C        -3.3232551367        1.5118185764       -4.0947451580
 C        -3.3592179060        0.0728528466       -3.7319501448
 C        -4.6561886227       -0.7416664154       -4.1426922576
 O        -5.5674746022       -0.1277257090       -4.6665086065
 C        -4.9150198737       -2.2533366919       -3.8756516328
 C        -5.8749160549       -2.1114123783       -2.6366705507
 O        -5.5152510274       -2.1277429588       -1.4909248772
 C        -7.4765001381       -2.2832299561       -2.9731243258
 C        -8.2639171586       -1.7099065039       -1.7658548830
 C        -8.0421132852       -0.3123650277       -1.3922069884
 O        -7.9505519132        0.4828794189       -2.3322162832
 C        -7.9870898923        0.3989812419        0.0700542626
 C        -9.0168831331        1.6658412175       -0.0156693459
 O        -8.6580820481        2.5959381884       -0.6956060456
 C       -10.5252529057        1.5337452972        0.3695331989
 C       -11.1718875791        2.9573797993        0.1322642442
 C       -12.5595397605        2.6998170376       -0.6141640853
 O       -13.0044180960        1.6380919950       -0.9318865653
 C       -13.5481913621        3.9159769252       -0.8602991833
 C       -13.9843668189        4.4079704001        0.5245567876
 O       -13.3800268758        5.2314726932        1.1782791894
 C       -15.2761404475        3.7182255866        1.0870155470
 C       -15.6525988572        4.3524424289        2.4801514170
 C       -14.3688260973        4.1917920439        3.3906392954
 O       -14.0345792271        2.9983721978        3.3844042804
 C       -13.9977313767        5.2306347347        4.6438204332
 C       -12.7651131453        6.0971873530        4.0697459969
 O       -11.7257751090        5.4661708335        4.2221014153
 C       -13.1017437833        7.3393758958        3.3924296037
 C       -12.9221755285        8.7368536643        4.1961976214
 C       -14.0263380000        9.7041680417        3.7120848520
 O       -14.3888236194        9.5818778836        2.5286122830
 C       -14.4085889203       10.8410431927        4.7010828961
 C       -14.9615369907       10.3647577482        6.2342863521
 O       -15.0871638362        9.2107228160        6.6235934126
 C       -15.1502161269       11.5894824099        7.1008155744
 C       -13.0193067457       11.6978938845        5.1051671111
 C       -15.5140766528       11.7998991077        4.0938539851
 C       -15.2749878276        5.9429642858        5.0204045203
 C       -13.5815444522        4.3440787137        5.8154646067
 C       -12.7213982002        5.1031252133       -1.4838520753
 C       -14.6821265327        3.6048552856       -1.8868802929
 C        -8.3735463704       -0.7561603154        1.0575113798
 C        -6.4357469071        0.7696076837        0.4527487818
 C        -5.5038551842       -2.9511353345       -5.1195483163
 C        -3.6245469876       -3.0637919056       -3.1634131299
 C        -6.6062410770        2.5453008463       -5.6378913719
 C        -4.3925693717        3.5554893317       -6.2348235259
 H        -4.7064222428        6.3636390650       -3.8995788276
 H        -6.2050672431        6.4644924629       -4.8117416086
 H        -4.7497165868        5.8537300551       -5.6778241833
 H        -2.4480294201        1.8785708027       -3.5739568578
 H        -3.2336177744        1.4285924596       -5.1754931352
 H        -3.3663512284       -0.2889140291       -2.6313387484
 H        -2.5847691737       -0.5354226892       -4.1355154759
 H        -7.7218488116       -3.3347347376       -3.2049080310
 H        -7.7345678602       -1.5239937181       -3.8674032191
 H        -7.9604231709       -2.5055693747       -0.9731116199
 H        -9.3510310802       -1.8827490100       -1.7334123943
 H       -10.6109845930        1.0197544231        1.3405806385
 H       -11.1135219531        0.8794339205       -0.2725685504
 H       -10.6571236944        3.5489063160       -0.6503552516
 H       -11.4855298465        3.5048693095        1.0333609175
 H       -15.2390308555        2.5988876427        1.0897695514
 H       -16.0781733946        3.8449667732        0.5068232255
 H       -16.5998819141        3.8948379426        2.8267528655
 H       -15.8741895605        5.4346533743        2.3075687407
 H       -14.0402816833        7.2694989169        2.9294605065
 H       -12.6231370497        7.3828913040        2.3805275209
 H       -11.9217663105        9.0736020193        3.8923096580
 H       -12.9840057268        8.6386449918        5.3565342947
 H       -15.5701215986       12.5152107167        6.6341959170
 H       -14.0609596141       11.8101237929        7.3720599123
 H       -15.7118517133       11.3767298768        8.0332345729
 H       -13.2412075937       12.4329588801        5.7712500656
 H       -12.6745603884       12.1042375457        4.1701067792
 H       -12.1536311634       11.0721224263        5.4155208447
 H       -15.6052291100       12.7318520137        4.6948812256
 H       -16.4542770621       11.2634808037        4.1381451421
 H       -15.3775145292       11.9421129422        3.0633125419
 H       -16.0554077466        5.1690484734        5.3021131310
 H       -15.5689844206        6.4403786772        4.0590091770
 H       -15.1472846652        6.5694124512        5.8951435659
 H       -12.5279535151        3.8542247112        5.5879065481
 H       -14.3125429931        3.6432540987        6.0583021455
 H       -13.4645366577        4.9601825632        6.7615364476
 H       -12.4663712862        4.9133183047       -2.5190633306
 H       -11.7493347171        5.2775786234       -0.9683110372
 H       -13.1324441565        6.1394455161       -1.6199056800
 H       -14.3775088894        3.8889084651       -2.9020347530
 H       -15.6795552508        4.0283396917       -1.6611207812
 H       -14.8316156009        2.5411807097       -1.8726977857
 H        -7.7502206030       -1.5500810050        1.0292472342
 H        -9.4623440019       -1.1348983034        0.9700341343
 H        -8.4243084095       -0.3770218856        2.0305768425
 H        -5.5107401690        0.3328012959        0.0290188581
 H        -6.3108776930        0.3950747138        1.4073361743
 H        -6.1922238225        1.8152009766        0.4473851473
 H        -4.8867966862       -2.7271194924       -6.0488665577
 H        -6.4894730477       -2.6175640179       -5.3987185253
 H        -5.5908173691       -4.0206141610       -4.9478740466
 H        -3.0216338099       -3.1583399756       -4.1688555416
 H        -3.7966207653       -4.1093097166       -2.8125961233
 H        -3.0656816533       -2.4577310495       -2.4081683467
 H        -7.3913264975        2.4297868250       -4.9808770464
 H        -6.2145774101        1.5381951833       -5.8828412045
 H        -6.8865045223        3.0317339585       -6.5797132010
 H        -4.9886140616        4.1116276080       -6.9542512132
 H        -4.1131307180        2.5546307287       -6.6291758745
 H        -3.4755091230        4.0666025310       -5.9202259075
 Na       -6.8479457453        2.4349210006       -2.1226690128
