117

 C        -5.4533606239        5.6151545133       -4.7534882425
 C        -5.8056724748        4.2104458452       -4.3536817822
 O        -6.7835967107        4.1093199597       -3.5359786976
 C        -5.1818197760        2.9585103568       -4.9399359146
 C        -4.3248211819        2.0652951934       -3.9216403076
 O        -4.5327015637        2.2002206465       -2.7492415183
 C        -3.4611085563        1.0995847684       -4.5625168551
 C        -3.4668498405       -0.2637154147       -3.7936986798
 C        -4.6654178772       -1.1325268281       -4.3580966020
 O        -5.4565715557       -0.6772092232       -5.1658317221
 C        -4.9503977468       -2.4593032968       -3.6657850319
 C        -6.0326166098       -2.3261739261       -2.6557338015
 O        -5.9021538492       -2.5471616221       -1.4794509166
 C        -7.4383397985       -1.9782393991       -3.1013435287
 C        -8.3102890459       -1.4850156596       -1.7816170241
 C        -8.0836033361       -0.0543595456       -1.4296729272
 O        -7.7959783185        0.6944363721       -2.3696858395
 C        -7.9689208977        0.5571105357        0.0587349194
 C        -8.8371544337        1.8879775465        0.1130074003
 O        -8.5409753218        3.0175174402       -0.1858981549
 C       -10.5331303817        1.7144371819        0.4779177641
 C       -11.2296048683        2.9494629282        0.1737691335
 C       -12.6864970112        2.6775696196       -0.2172349571
 O       -13.1673568737        1.5828086974       -0.1262193892
 C       -13.4333671220        3.8969742066       -0.6976452109
 C       -14.0721309672        4.4735769903        0.6249790612
 O       -13.4065156089        5.2785047023        1.1901063467
 C       -15.2691136700        3.7960776425        1.1788857188
 C       -15.7072893929        4.4859261789        2.5076715621
 C       -14.5636062353        4.2211231111        3.5224668562
 O       -14.3159100342        3.0121130582        3.6765419188
 C       -14.1471415600        5.3275199416        4.5107167528
 C       -12.8609970399        6.1804398839        4.0218025690
 O       -11.8472230651        6.0048082860        4.5413718648
 C       -13.0633997560        7.3701609953        3.0536399349
 C       -13.0252943253        8.6652643178        4.1105951764
 C       -13.7364497270        9.8813276231        3.5230588093
 O       -14.0478262228        9.9518472489        2.3369669329
 C       -14.2850757712       11.0977797185        4.6107738057
 C       -14.8472503634       10.5177734438        5.8524895512
 O       -15.0364604622        9.2740252675        5.8254276025
 C       -15.3143245493       11.1157697236        7.2044591612
 C       -13.1852841083       12.1082269146        4.7354643591
 C       -15.6176077380       11.8531438214        4.0565598263
 C       -15.3142261740        6.3435793342        4.8182560861
 C       -13.7750211955        4.7560157202        5.8587191689
 C       -12.4791947961        5.0120750049       -1.2217594617
 C       -14.4724441430        3.5156258925       -1.7672278045
 C        -8.4615251574       -0.5107474918        1.0867772475
 C        -6.4789648329        0.8376594651        0.3490792013
 C        -5.4929955375       -3.4357789193       -4.8963671296
 C        -3.6091558008       -3.1268165860       -3.1547082020
 C        -6.2766640359        2.0533505879       -5.4748944370
 C        -4.3646106120        3.3504221737       -6.2724719045
 H        -6.1975428778        6.2437937288       -4.4632913687
 H        -5.0850356062        5.7879494994       -5.8006861538
 H        -4.5565044364        5.8234414632       -4.1629620330
 H        -2.4239242520        1.3415325143       -4.3687364140
 H        -3.7111108115        0.9397511179       -5.6086143981
 H        -3.4446100331       -0.3024103149       -2.6653450558
 H        -2.6906874020       -0.8536754867       -4.0298326399
 H        -7.9455236744       -2.7089810457       -3.6918856670
 H        -7.4712986663       -1.0546308689       -3.7464036427
 H        -8.1246389457       -2.1938462710       -0.9422414127
 H        -9.3553271783       -1.7417088481       -2.0204122731
 H       -10.6685055684        1.5259199761        1.5346463702
 H       -10.9504666518        0.8235607673        0.0344756478
 H       -10.8637770176        3.3578661787       -0.7869222193
 H       -11.1094347710        3.6149087808        0.9102989053
 H       -15.1573507483        2.6736240093        1.3504674555
 H       -16.0146777460        3.8896282408        0.3533763908
 H       -16.5677648010        4.1171403458        3.0351967867
 H       -15.9804167858        5.5067664762        2.2774316071
 H       -13.8944777193        7.3275538299        2.3436834480
 H       -12.2186939007        7.4388558986        2.2689109699
 H       -11.9490140957        8.8500751445        4.2718846240
 H       -13.4226606165        8.3521426376        5.0737378871
 H       -15.1285027235       12.1785154743        7.3449067688
 H       -14.7608315678       10.5801631761        7.9593721076
 H       -16.3848289924       10.8043425393        7.2255250116
 H       -13.5437134203       12.9122029059        5.3164216486
 H       -12.7171586161       12.3214993926        3.8018631611
 H       -12.3595811164       11.6149576647        5.3942462279
 H       -15.4292851907       12.3862390506        3.1050907881
 H       -15.9027916457       12.6188011444        4.7528158629
 H       -16.4207977152       11.1315538259        4.0469968696
 H       -16.2007657194        5.8084286372        5.2270199349
 H       -15.5546649633        6.8464938424        3.9204884679
 H       -14.9441184212        6.9587468431        5.5696983949
 H       -13.0448507561        3.9114458811        5.7874654208
 H       -14.5814237152        4.3588119142        6.3164239747
 H       -13.3393268454        5.5436186188        6.4856955680
 H       -11.7370630893        4.6662308283       -1.9675008734
 H       -11.9335639426        5.5881072150       -0.5000318689
 H       -13.0766240311        5.8531590022       -1.7256907561
 H       -13.8381708842        3.0774220029       -2.6048487135
 H       -14.9760732436        4.3730150548       -2.1991571132
 H       -15.2648861159        2.8626932984       -1.4874406806
 H        -7.8248527537       -1.3654035644        0.9962405277
 H        -9.5429364699       -1.0073053094        0.8142912261
 H        -8.7005793417       -0.0679183028        2.0893510437
 H        -6.0251533351       -0.1490984403        0.1720865868
 H        -6.1915751214        0.8764446598        1.3381673981
 H        -5.8429519056        1.5515157201       -0.1880091786
 H        -4.6651091865       -3.6468884059       -5.5839228378
 H        -6.1561615126       -2.9100093019       -5.5633484674
 H        -5.8703286659       -4.3881753628       -4.5530380801
 H        -2.8675374779       -3.2390310473       -3.8929916239
 H        -3.8488367173       -4.0308317562       -2.8026359799
 H        -3.3711304588       -2.5515644751       -2.3306296370
 H        -6.7817965895        1.4480891313       -4.7624513035
 H        -5.9497391169        1.3273993590       -6.3148961176
 H        -7.1008287491        2.8311023362       -5.7138500486
 H        -4.7580327163        4.2457851844       -6.7780493162
 H        -4.2405595942        2.4133514763       -6.9035831393
 H        -3.3760464779        3.6572332586       -6.0198193322
 Na       -6.9597564242        2.8865183717       -1.9145859783
