117

 C        -5.3541196699        5.6820387154       -4.7729767212
 C        -5.7864184837        4.2687542651       -4.4462288485
 O        -6.7497036440        4.1366667497       -3.6247895890
 C        -5.1709109586        2.9940114104       -5.0112590015
 C        -4.3387847953        2.0599630010       -4.0425846035
 O        -4.6559594185        1.9906105710       -2.8581836961
 C        -3.3466785612        0.9669769970       -4.6755784325
 C        -3.5490840391       -0.3195578140       -3.8264438586
 C        -4.7396597014       -1.2271816444       -4.3357114792
 O        -5.3906861521       -0.8826550627       -5.3111208760
 C        -4.9585209298       -2.6553414307       -3.6334028942
 C        -6.0804876440       -2.4931255869       -2.5962988187
 O        -5.7957508286       -2.6821245330       -1.4447924042
 C        -7.5063313266       -1.9070633894       -3.0148245514
 C        -8.2835568934       -1.3329378215       -1.8757851679
 C        -7.9164877398        0.0579328531       -1.4817908792
 O        -7.7162239005        0.9385949635       -2.3507972495
 C        -8.0071859125        0.4876391348        0.0309020996
 C        -8.8130477911        1.8567671870        0.1297772014
 O        -8.4256549859        2.9708518051       -0.1768588613
 C       -10.3505445649        1.7683389872        0.5709825891
 C       -11.1855915299        2.9446398865        0.2635875744
 C       -12.6451222211        2.6450363516       -0.1599892031
 O       -13.2058715868        1.5830856331        0.0628562572
 C       -13.4239518735        3.9912061248       -0.7267449759
 C       -14.0631618613        4.5233302518        0.5642654029
 O       -13.4579221943        5.2936285093        1.3039285901
 C       -15.3979534625        3.9514557203        1.1717632692
 C       -15.7786809934        4.5663971834        2.5341528793
 C       -14.7512246708        4.2403094684        3.6501186980
 O       -14.1764063135        3.1387747158        3.7871007548
 C       -14.2437963852        5.4282926698        4.5686249434
 C       -12.8468446051        6.2783159986        4.0383759497
 O       -11.7587803344        5.9444420715        4.5701756760
 C       -13.1306481916        7.3802904919        3.1670386448
 C       -12.9944651273        8.8022745478        3.9490882334
 C       -13.8375395679       10.0156235953        3.4058073323
 O       -14.0106924364       10.2545420840        2.2176350643
 C       -14.2553414484       11.0721563413        4.5338660434
 C       -14.8643602181       10.2723086414        5.8379408537
 O       -15.1987923353        9.1362533789        5.7641108040
 C       -15.2042446865       11.1426820337        7.1049052639
 C       -13.2064386015       12.2052062869        4.7260360117
 C       -15.5140890124       11.8499540681        3.8866407490
 C       -15.4644106485        6.3547286995        4.7467593644
 C       -13.8172407130        4.8909369741        5.9977087992
 C       -12.4813368889        5.0085209073       -1.3350317573
 C       -14.4735590113        3.4289519810       -1.7678509704
 C        -8.5277499375       -0.5330848764        1.0121283056
 C        -6.5174190824        0.6989992976        0.2932476121
 C        -5.5664479335       -3.5540003418       -4.7270779063
 C        -3.7169549576       -3.1932612107       -3.0343392815
 C        -6.2753080392        1.8464892511       -5.4705179848
 C        -4.2987773787        3.3367268232       -6.2991689799
 H        -6.2681717188        6.3228415584       -5.0016243393
 H        -4.7432350761        5.5973178428       -5.5892847870
 H        -4.6524026023        6.1746109933       -4.0701629670
 H        -2.2933954433        1.1470486876       -4.5726914971
 H        -3.6815508956        0.7727466429       -5.6998056192
 H        -3.8566963670       -0.0644637176       -2.7758961394
 H        -2.7528829668       -1.0610188245       -3.5977634242
 H        -8.1463896198       -2.6789067499       -3.4699779204
 H        -7.5479896512       -1.0771424408       -3.8397533061
 H        -7.9208264942       -2.0558919263       -0.9997479772
 H        -9.3458166548       -1.6544393206       -1.9772898592
 H       -10.1660579502        1.5283128804        1.6017047525
 H       -10.7480909649        0.9226883082        0.1639796265
 H       -10.8314839568        3.4428399566       -0.6166962176
 H       -11.2732891946        3.7683742894        1.0579002132
 H       -15.1725914501        2.8523530625        1.4521144909
 H       -16.1581143821        3.9285172478        0.5296357887
 H       -16.7853695075        4.5225161428        2.9358963073
 H       -15.7054761231        5.6479964065        2.3461709149
 H       -14.1361411703        7.2295475277        2.6708185112
 H       -12.4607982648        7.2597104806        2.2585735021
 H       -11.9443296669        9.1035426300        4.0327110298
 H       -13.3327345893        8.5050906557        5.0463149963
 H       -14.6901398583       12.1103596964        7.1200147154
 H       -14.8857301267       10.5724668415        8.0657938262
 H       -16.2722826207       11.1594920269        6.9735787698
 H       -13.6624829148       12.9714329075        5.2689904661
 H       -12.7311564094       12.4908720759        3.7875021074
 H       -12.4291745994       11.8556130692        5.3803897513
 H       -15.5132929651       11.7820945384        2.8131452158
 H       -15.3810211537       12.8702627615        4.0643591948
 H       -16.4058963566       11.5798734167        4.2757630350
 H       -16.2790041075        5.6997877146        4.9557939982
 H       -15.7013242271        6.8504805412        3.7888304137
 H       -15.3789332801        7.0584524897        5.5592761189
 H       -13.1680058311        3.9318697916        5.8394900830
 H       -14.6213713451        4.3993314402        6.5609127304
 H       -13.2678265310        5.5803252364        6.5871486796
 H       -11.6106519378        4.6340640630       -1.9404066831
 H       -11.9921476823        5.7554644378       -0.5912134788
 H       -13.0525437894        5.6916545705       -1.8414995278
 H       -13.9822269205        2.7404263819       -2.4286183386
 H       -14.7793990770        4.2864018014       -2.4616929194
 H       -15.4530965415        3.0707026012       -1.4195369966
 H        -8.0863027442       -1.5284042742        0.8174395946
 H        -9.5852063732       -0.7510652160        0.8783318980
 H        -8.5266754770       -0.1239618697        2.0361264120
 H        -5.9971664159       -0.2492720356        0.5088610651
 H        -6.2118816519        1.2135811665        1.2124507642
 H        -5.9345793646        1.1346972208       -0.4671589958
 H        -4.9808482823       -4.1838636621       -5.4428022435
 H        -6.1618634499       -2.9323534105       -5.3485935360
 H        -6.1410670107       -4.2674719044       -4.1803748845
 H        -2.8599910925       -2.8821495304       -3.5089263959
 H        -3.6750225776       -4.2700215667       -2.9339278827
 H        -3.8917741250       -2.7005254312       -1.9987534119
 H        -6.7397076715        1.3661078936       -4.5478762994
 H        -5.8382112616        1.0003845209       -6.0632318256
 H        -7.1901057914        2.3306788107       -5.8266701107
 H        -5.0087832607        3.7953920355       -7.0141064761
 H        -3.8643785540        2.4283319640       -6.7089738697
 H        -3.4984179897        4.1607438943       -6.2248933970
 Na       -6.8946756164        2.9251770530       -1.6721388407
