117

 C        -5.2954775404        5.6418809143       -4.7944904941
 C        -5.8010958985        4.1718253204       -4.4981649609
 O        -6.6513644154        4.1850287019       -3.6840239121
 C        -5.1420401649        2.8968075802       -5.1971488989
 C        -4.4724843392        1.9815800280       -4.1608910992
 O        -4.7994277191        1.9267494132       -2.9932829117
 C        -3.4810477399        0.9030128722       -4.5394762118
 C        -3.6106891203       -0.4078240845       -3.8234159186
 C        -4.6763667471       -1.4214365888       -4.4487686368
 O        -5.3043361358       -1.0860935230       -5.4257592751
 C        -4.9970015823       -2.7348724763       -3.6376195754
 C        -6.1156965048       -2.3710198687       -2.4744794185
 O        -5.8941565956       -2.7811007478       -1.3345999842
 C        -7.4184377209       -1.9091232247       -2.9357425523
 C        -8.2916464549       -1.2798547985       -1.9033892883
 C        -7.9931527590        0.2406455944       -1.5268223249
 O        -7.6239216618        1.0281670956       -2.3578553873
 C        -8.0891778311        0.4946748462       -0.0127677207
 C        -8.9037479924        1.7833314674        0.1894070574
 O        -8.2458487168        2.8245896838       -0.1259315128
 C       -10.2501015396        1.7035617900        0.7534371276
 C       -11.0289978797        2.9886015177        0.3454287529
 C       -12.6219991967        2.7765776703       -0.0756894896
 O       -13.1448985666        1.7264277028        0.1817464531
 C       -13.4453513530        3.9720802688       -0.7118701919
 C       -14.0786508618        4.4781460060        0.6926878954
 O       -13.4691804889        5.3371566150        1.3097816126
 C       -15.4680139157        4.0105695059        1.1962779649
 C       -15.6253171132        4.6188562086        2.5227871906
 C       -14.5640770864        4.3811389292        3.6625904179
 O       -14.1670531779        3.2971092505        3.8051606597
 C       -14.3016416362        5.5411775518        4.7382644703
 C       -13.0567014953        6.3112771482        4.1805279584
 O       -11.9290823604        5.8762370946        4.4368274618
 C       -13.2287686238        7.6518574438        3.1557669269
 C       -12.8950454956        8.9630110649        3.7485453522
 C       -13.7968713027       10.1489112469        3.3601883077
 O       -13.9131436838       10.4321841370        2.2131407578
 C       -14.4028724025       11.0848039123        4.4263777591
 C       -14.9984841485       10.3076121049        5.6815057130
 O       -15.2893696961        9.1501299557        5.7038667973
 C       -15.0142774316       11.1959813801        6.9004658016
 C       -13.2055542655       12.0231316595        4.8115353923
 C       -15.5597901267       11.8008716965        3.7337457399
 C       -15.5709165704        6.4276709161        4.8356689491
 C       -13.9218756811        4.9014176009        6.1384252547
 C       -12.6145078949        4.9283902622       -1.4398502311
 C       -14.4715551708        3.3304888880       -1.7293617494
 C        -8.6379350434       -0.5572354370        0.9046762271
 C        -6.3625456478        0.6724785529        0.4275852514
 C        -5.6551065024       -3.8218701290       -4.7002166606
 C        -3.7587956169       -3.3772284104       -2.8855999834
 C        -6.3080017254        1.9772866296       -5.4918390827
 C        -4.2383290024        3.2638441521       -6.3953569159
 H        -6.1725527330        6.1600461910       -5.3060581663
 H        -4.3353505481        5.6949786717       -5.3956885758
 H        -4.9129852157        6.1954352436       -3.9454027607
 H        -2.4585891449        1.2118096812       -4.2914289337
 H        -3.6208577108        0.6554059090       -5.5883949925
 H        -3.9513234125       -0.2941903333       -2.8126480355
 H        -2.6792012899       -1.1148128360       -3.6001437122
 H        -7.9613431946       -2.8502807834       -3.3551324992
 H        -7.4032063299       -1.2672775592       -3.8031706878
 H        -8.2326253293       -1.9992601352       -1.1003026211
 H        -9.3424259755       -1.5012655816       -2.2730565787
 H        -9.9115989191        1.4801802281        1.7460123967
 H       -10.6268174614        0.7660920972        0.2966977532
 H       -10.4357419261        3.7013397061       -0.2845702712
 H       -11.3404512905        3.6300939086        1.2875796802
 H       -15.5248958587        3.0008489669        1.2883647445
 H       -16.3306932237        4.3396345588        0.5279893848
 H       -16.5310032937        4.2502183264        3.0794517624
 H       -16.0021468839        5.6434034623        2.2759984433
 H       -14.1497599431        7.7190510297        2.4715449203
 H       -12.4215290095        7.4069241957        2.4711133161
 H       -11.8358436625        9.2744339939        3.5697949184
 H       -12.9290193127        8.7245835996        4.8216213716
 H       -14.0318841416       11.7225880880        6.9509077869
 H       -14.9575227538       10.5099399020        7.7797198147
 H       -15.9492619938       11.7577868305        6.7926502582
 H       -13.4434858523       12.8372918728        5.5236113876
 H       -12.8586309975       12.4306534069        3.8649791302
 H       -12.4478926098       11.4937404825        5.2360391814
 H       -15.8527632085       11.3470852632        2.8293977953
 H       -15.1904669877       12.7585280554        3.4832283465
 H       -16.4732993406       11.9469374565        4.3262313455
 H       -16.3857761008        5.7210401482        4.8023679998
 H       -15.6325737372        7.1118554686        3.9289821177
 H       -15.6482831006        7.0024990415        5.8391167098
 H       -13.3302841901        4.0559205147        6.0227166502
 H       -14.8647942808        4.3094534643        6.6286521298
 H       -13.4167055391        5.5979250169        6.8402340551
 H       -11.8601774521        4.4870202640       -2.1276940635
 H       -11.9645759961        5.5120909826       -0.7879234614
 H       -13.2641936321        5.7499097124       -1.8034098810
 H       -14.1620395918        2.5645511812       -2.3970269648
 H       -14.7291410034        4.2082284262       -2.3422674923
 H       -15.4916143546        3.1598934157       -1.2899743109
 H        -8.0817004276       -1.5005702090        0.7786312260
 H        -9.5796318487       -0.8854388406        0.7882055096
 H        -8.5658205549       -0.1272039400        1.8737415583
 H        -5.7505425712       -0.0610781387        0.9172355439
 H        -6.2374003407        1.5358193632        1.1708773582
 H        -5.6962886434        1.0308529193       -0.3671995985
 H        -4.9861339628       -4.4920841973       -5.1933586675
 H        -6.2695091714       -3.4183999798       -5.5349223050
 H        -6.1262860255       -4.5258177981       -4.0051206141
 H        -2.7931830019       -3.0512654458       -3.4871060095
 H        -3.7786370555       -4.5851587186       -2.9489232330
 H        -3.8200994202       -3.0291287090       -1.8405223697
 H        -6.8447876398        1.8623608390       -4.4905431493
 H        -5.9894921339        1.0190683499       -5.7248324814
 H        -7.0931327174        2.3525686439       -6.0508943846
 H        -4.9181454945        3.3942063365       -7.2774769323
 H        -3.3971647962        2.6321232430       -6.6381931921
 H        -3.8793128412        4.3128683163       -6.2931352556
 Na       -6.6355078058        2.9687353986       -1.5825311721
