117

 C        -5.1923758242        5.6435304466       -4.8983723410
 C        -5.6830095385        4.1607988259       -4.4714729641
 O        -6.5407205276        4.0250005998       -3.6695449032
 C        -5.1965803591        2.8966494170       -5.2301258107
 C        -4.5554718828        1.9074837746       -4.0793746426
 O        -4.9836237402        2.0038086876       -2.9546184080
 C        -3.5320775778        0.7633673611       -4.5336230818
 C        -3.6599243115       -0.5543097998       -3.8147363114
 C        -4.6656114977       -1.5988634059       -4.4233346915
 O        -5.1831177002       -1.3534896179       -5.4849333237
 C        -5.0047434758       -2.8667376566       -3.5562630324
 C        -6.1168723316       -2.5241315494       -2.4864255462
 O        -5.9687324645       -2.7139999916       -1.3132320191
 C        -7.4121471200       -1.8948535169       -3.1181816070
 C        -8.4437893110       -1.2322608619       -1.9958760902
 C        -7.9170286534        0.1186565303       -1.4936092392
 O        -7.6336130974        0.9353620758       -2.3124845907
 C        -7.9379414000        0.4490043908        0.0869929192
 C        -8.7501878204        1.8330506362        0.2781673539
 O        -8.2766661575        2.8871901408       -0.0314304944
 C       -10.3026962292        1.8130291241        0.7954498027
 C       -11.0575950017        3.1843705565        0.4603192966
 C       -12.5098512488        2.7917061505        0.0930545043
 O       -12.9899886745        1.7123095517        0.2803126132
 C       -13.4066371407        3.9381862757       -0.6638267577
 C       -14.1051326757        4.5560855933        0.6531523269
 O       -13.3865204095        5.3442229021        1.1966557655
 C       -15.3684471840        4.0903011875        1.2243642220
 C       -15.7345625859        4.7260659826        2.6270803136
 C       -14.5864348939        4.4742763699        3.7626700030
 O       -13.9830054066        3.3942339454        3.8103431959
 C       -14.4254277222        5.6449505682        4.7510572982
 C       -13.1914186341        6.4039272545        4.2031871985
 O       -12.1221320725        5.9279944922        4.2772401505
 C       -13.2540249975        7.6986402919        3.2311836318
 C       -12.7187444640        9.0096188098        3.7679313832
 C       -13.7006672780       10.1514694817        3.2213191397
 O       -13.7807935483       10.4861950015        2.0421157763
 C       -14.4891515421       11.0954042812        4.2258328483
 C       -14.9248357313       10.4335581825        5.6233386421
 O       -15.4029378681        9.2822540565        5.5585411342
 C       -14.9465353172       11.2421175906        6.9872425729
 C       -13.2740580231       11.8607540755        4.7866568048
 C       -15.6785227804       11.9150767947        3.6576790946
 C       -15.7065471962        6.4904057444        5.0443614735
 C       -14.0825447851        4.9832342173        6.0388502539
 C       -12.6627005287        4.9707586128       -1.4631422523
 C       -14.4749118122        3.2085748974       -1.5368402642
 C        -8.5515480888       -0.7584671589        0.9032205837
 C        -6.5581980287        0.7098311005        0.5387698833
 C        -5.6650463664       -3.9062964595       -4.4775985259
 C        -3.7622831786       -3.5381653507       -2.8869762149
 C        -6.5194521616        2.1645656048       -5.7050905637
 C        -4.2810784478        3.0824346245       -6.4692855048
 H        -5.8303313190        5.9875935880       -5.6673589777
 H        -4.0450961206        5.7867977980       -5.0735763915
 H        -5.2197123737        6.3393725113       -4.0490602280
 H        -2.5078037525        1.1329695181       -4.2474505081
 H        -3.6360192173        0.5363014298       -5.5964855221
 H        -3.8401503520       -0.4292746618       -2.7478148360
 H        -2.8086089054       -1.1615419097       -3.7968587725
 H        -7.9376159944       -2.6083155646       -3.7822061447
 H        -7.1264517849       -1.1499609548       -3.7887533458
 H        -8.6878322731       -1.9890945754       -1.3753034824
 H        -9.3879208657       -0.9221537301       -2.4461161373
 H       -10.1064170462        1.5474851939        1.8797844844
 H       -10.7401587118        0.8890924140        0.2170456125
 H       -10.5379582322        3.8654507334       -0.3222994853
 H       -11.1922342972        3.8639726813        1.2587817891
 H       -15.2846927859        3.0138975714        1.3081385751
 H       -16.2826092584        4.3212611571        0.5076937809
 H       -16.7342769564        4.3981586943        3.0106639148
 H       -16.0006382432        5.7533568215        2.3637987294
 H       -14.2849716331        7.9640311591        2.9784929996
 H       -12.6823998878        7.4210233748        2.2743242100
 H       -11.7355686345        9.3062785707        3.3426470736
 H       -12.5812996130        8.9626082130        4.7705043364
 H       -13.9549619034       11.1018617858        7.3816790366
 H       -15.5593725842       10.6916513207        7.6603371678
 H       -15.4115094781       12.2460534609        6.7473017407
 H       -13.5605552114       12.6672906948        5.4734807265
 H       -12.8382556340       12.3515084102        3.9535712245
 H       -12.5243676658       11.1975920951        5.3591227778
 H       -16.4849235729       11.2530389076        3.2160727155
 H       -15.3448496546       12.6793444591        2.9079267213
 H       -16.2577690206       12.4830440652        4.4745058201
 H       -16.6563709667        5.8198481282        4.9491353265
 H       -15.7460291992        7.4117349934        4.4304962604
 H       -15.6382255809        6.7835469152        6.1166827591
 H       -13.3373820688        4.2077103713        6.0265076571
 H       -14.8883488167        4.4154156339        6.3507931737
 H       -13.7650992505        5.7785685081        6.8052868176
 H       -12.1465952759        4.5621419130       -2.3040299124
 H       -11.8587457014        5.3741332721       -0.9324051488
 H       -13.3396713487        5.9231476716       -1.6197326074
 H       -14.1644861129        2.4276244119       -2.2877577022
 H       -14.9514472088        3.9651217165       -2.0839903235
 H       -15.2730408657        2.8518292180       -0.9199126334
 H        -8.0273182635       -1.6294952934        1.0339990921
 H        -9.4482851536       -1.0803915477        0.2425745534
 H        -8.9529285192       -0.4275815663        1.8327727206
 H        -5.9324091994        0.0093575507        1.0880719737
 H        -6.4542227751        1.6083492917        1.1323733213
 H        -5.8012882043        0.9439152026       -0.2771241265
 H        -4.8608322267       -4.3670923215       -5.0028094316
 H        -6.2767395514       -3.4961050363       -5.3107351070
 H        -6.0104726899       -4.7892526286       -3.9184876243
 H        -2.9507009350       -3.5283031967       -3.7256511312
 H        -4.0160335483       -4.5974304685       -2.8621644937
 H        -3.5506027982       -3.1602523269       -1.8802279789
 H        -7.3559354581        2.2027266067       -5.1705543479
 H        -6.2212515827        1.1384941982       -5.7878526454
 H        -6.8580054920        2.5169131299       -6.6682602794
 H        -4.7869914527        3.0391303942       -7.4508593551
 H        -3.4040119534        2.3518380136       -6.5115645714
 H        -3.8299219275        4.0085576964       -6.4192923824
 Na       -6.3072836309        3.0314572665       -1.6496578256
