117

 C        -5.0880651232        5.4547552832       -4.9599217716
 C        -5.6283329353        4.1600441024       -4.5912666045
 O        -6.4326628954        4.0871760693       -3.5930546273
 C        -5.2116681197        2.7740390979       -5.2837363162
 C        -4.7150083339        1.7470381328       -4.1706822819
 O        -4.8699235986        1.8868040596       -2.9474151391
 C        -3.7177991572        0.7160097527       -4.5900560566
 C        -3.6761123631       -0.5923436938       -3.6837743713
 C        -4.6733985120       -1.7145667590       -4.3250489982
 O        -5.0634387767       -1.6314042814       -5.4775698816
 C        -5.0565505529       -3.0542121912       -3.5854173251
 C        -6.1548377602       -2.5321270235       -2.5133032346
 O        -6.0734780550       -2.5964981447       -1.3047820486
 C        -7.3737497240       -1.7845864309       -3.1763517204
 C        -8.4998519890       -1.2769800231       -2.1294915504
 C        -8.0235447329       -0.0000839317       -1.4907234099
 O        -7.4879761280        0.9616082202       -2.1249415122
 C        -7.9969723905        0.4898557469        0.0970827602
 C        -8.7309536208        1.8603928698        0.2167300618
 O        -8.1769236648        2.9022672149       -0.0419429402
 C       -10.3247649880        1.9215277339        0.8001132080
 C       -11.0263081543        3.2019975247        0.5366561524
 C       -12.4053716271        2.7941529754        0.0552946039
 O       -12.8264939969        1.6684619615        0.3645013110
 C       -13.4329442541        3.8800764026       -0.5355813631
 C       -13.9814184614        4.6559298974        0.7039111997
 O       -13.2899853750        5.5294759904        1.1912451522
 C       -15.2911903291        4.0849184435        1.2500166557
 C       -15.7670816785        4.7612148972        2.6099762548
 C       -14.7840550938        4.5762092260        3.7199986658
 O       -13.9259534074        3.6569260533        3.7443146326
 C       -14.5633754453        5.6968863600        4.8165902413
 C       -13.1959556892        6.4829850937        4.1089726389
 O       -12.1168966558        5.9549533932        4.2790449979
 C       -13.5262007930        7.6611562631        3.2371787602
 C       -12.8671442601        9.1338921614        3.7182818345
 C       -13.6364121717       10.2320432237        3.1424841541
 O       -13.6537345966       10.4022382315        1.9227789730
 C       -14.3850675539       11.1918123054        4.2670068234
 C       -15.0455915755       10.4225655079        5.5726110001
 O       -15.5414495146        9.3401219779        5.5128900045
 C       -14.9680215237       11.1502026666        6.8903021454
 C       -13.1846699193       12.1483045939        4.6817757386
 C       -15.5102000190       11.9309369200        3.6778823529
 C       -15.8700456440        6.5224658695        5.0676963628
 C       -14.0598943923        5.0124808011        6.1350142466
 C       -12.7255339940        4.9462536987       -1.4155003033
 C       -14.5079449865        3.0471841488       -1.3712923874
 C        -8.5850213143       -0.8253490984        0.9255658120
 C        -6.5560416656        0.7510285823        0.6588940140
 C        -5.7145030024       -4.0594148568       -4.4428164473
 C        -3.7902655918       -3.5620610270       -2.8597611516
 C        -6.6291842821        2.2732168450       -5.9011153512
 C        -4.2474609498        2.9699787225       -6.4692954478
 H        -5.3427453859        5.6858293002       -5.9736665079
 H        -4.1537192343        5.6047418089       -4.6396646659
 H        -5.5638514958        6.1931458741       -4.2841043350
 H        -2.7917026656        1.2815902555       -4.3825016280
 H        -3.7892958202        0.3304523146       -5.6231877339
 H        -3.8500527117       -0.4938737530       -2.5934338835
 H        -2.8107744051       -1.1509841151       -3.7693123091
 H        -7.7803585110       -2.4513841840       -3.8288830612
 H        -7.0791064060       -0.9795095610       -3.8637580718
 H        -8.6630953837       -2.1647582482       -1.4541552883
 H        -9.3943060352       -1.0289419966       -2.5832623774
 H       -10.2172562250        1.7724123153        1.9357209872
 H       -10.7672010320        1.0164096014        0.3288396066
 H       -10.5912099377        3.7404455188       -0.2896978578
 H       -11.0088740856        3.9250447939        1.3104462388
 H       -15.1071188608        2.8917892255        1.4228674917
 H       -16.1139544320        4.1800692054        0.5895233543
 H       -16.7999989957        4.5992794371        2.8707116632
 H       -15.8398046371        5.8174431677        2.4060865682
 H       -14.5627240515        7.8087712818        3.4814407010
 H       -13.3427699377        7.7343768853        2.1137752261
 H       -11.9483861861        9.2419253410        3.2200639948
 H       -12.6221638518        9.2709578610        4.7791202471
 H       -14.3577469495       10.4578489000        7.3943876241
 H       -15.9664216699       11.1322591430        7.3910842712
 H       -14.7090049796       12.1713558032        6.7544009038
 H       -13.5030509856       13.1098890287        5.0880134966
 H       -12.8520417201       12.5305102454        3.6778574680
 H       -12.3486566587       11.7478234931        5.3831438747
 H       -16.4897812241       11.3032758544        3.8302604031
 H       -15.3039977646       12.1097785806        2.5460775080
 H       -15.7737984906       12.9214667129        4.1138265318
 H       -16.7654262877        5.8505971389        5.1992480617
 H       -16.0101276184        7.3307434773        4.3390355047
 H       -15.7050879491        7.0569790965        6.0078848645
 H       -13.0709606035        4.4465556339        6.0791182708
 H       -14.6217044842        4.2235835360        6.5018469041
 H       -13.9117299791        5.7605629407        6.8465462499
 H       -12.2937885939        4.5266495204       -2.3041203414
 H       -11.7826761899        5.3680080546       -0.9118058664
 H       -13.3707602062        5.7649423656       -1.5617873235
 H       -13.9056167647        2.6652571213       -2.2104091363
 H       -15.3534721027        3.5698072386       -1.8157007520
 H       -14.8604202929        2.2151184445       -0.8384645089
 H        -7.9119268651       -1.7231545001        0.9717111727
 H        -9.4914231953       -1.2624645936        0.3785021733
 H        -8.8165929412       -0.6182328343        2.0190673912
 H        -6.1233395825       -0.1586334380        1.1045982225
 H        -6.3462089761        1.5602174550        1.3471697450
 H        -5.7288037647        0.8976611832       -0.0279195363
 H        -4.9329055470       -4.3483768315       -5.2114716927
 H        -6.4281819620       -3.5580023838       -5.0512366113
 H        -5.9428133179       -5.0044488521       -4.0095594888
 H        -3.1984413149       -3.8888849781       -3.5686383964
 H        -4.1016684121       -4.3836902287       -2.3200141522
 H        -3.3720322238       -2.8529353003       -2.1409458705
 H        -7.5807317967        2.4691851076       -5.4118097042
 H        -6.6596118551        1.1860477721       -6.1125414194
 H        -6.7904281565        2.7671872141       -6.8738702817
 H        -4.6670567155        2.9821026979       -7.4564539682
 H        -3.5523329962        2.1108924502       -6.5266500635
 H        -3.5633112613        3.8166148683       -6.3224216956
 Na       -6.2439544394        3.0510508151       -1.6178466121
