117

 C        -4.9353589705        5.3363105192       -5.1144900658
 C        -5.6165300803        4.1501608344       -4.5707490589
 O        -6.3402762448        4.1629052464       -3.5449187117
 C        -5.2794770941        2.6548020912       -5.3292805723
 C        -4.7027370354        1.6184517067       -4.2395678645
 O        -4.8381112937        1.8152580489       -3.0674139544
 C        -3.8141565344        0.4718142089       -4.7525901743
 C        -3.8124839806       -0.7343710894       -3.7363260641
 C        -4.5937304217       -1.8393088043       -4.3587297297
 O        -4.9538484394       -1.7471377989       -5.5176971509
 C        -5.1512416423       -3.0495493279       -3.5260108399
 C        -6.2827666041       -2.4043783197       -2.5163214042
 O        -6.1190386481       -2.5211428537       -1.3024171392
 C        -7.4288315126       -1.6776082537       -3.0957820570
 C        -8.3247925682       -1.1539716469       -2.0720597604
 C        -7.8846418179        0.1178856651       -1.4076591708
 O        -7.3308943946        0.9452850708       -2.1571304650
 C        -8.0696428662        0.4198121581        0.0791562229
 C        -8.7236709980        1.7825534006        0.2537084199
 O        -8.1212736365        2.7663468924       -0.1446441830
 C       -10.0960396155        1.9625097964        0.8389921363
 C       -10.8966648824        3.1427680053        0.4972914392
 C       -12.3941112195        2.8149042434        0.1146327509
 O       -12.7693356070        1.6818117735        0.3278749399
 C       -13.3563450266        3.7657362991       -0.4679741103
 C       -13.9004408972        4.5978962268        0.8148706742
 O       -13.3700763345        5.6390750162        1.1772628361
 C       -15.2240014483        4.1028441673        1.3548111794
 C       -15.7288666107        4.9267541286        2.5540483368
 C       -14.7348780798        4.6650191850        3.6267964393
 O       -13.9719200638        3.7396228414        3.5971087792
 C       -14.5130905149        5.7827268198        4.8945914814
 C       -13.4316662709        6.5778754397        4.2537708695
 O       -12.2683925161        6.1514502340        4.2485951421
 C       -13.8366601766        7.6883531843        3.3440984428
 C       -12.8746460229        8.9176561291        3.7626655005
 C       -13.5647525191       10.1954975305        3.1831004666
 O       -13.7597488543       10.5213325683        2.0615869064
 C       -14.2836537117       11.2436505711        4.1855519204
 C       -14.8936561418       10.4140528500        5.4681144905
 O       -15.6126916099        9.4941954826        5.2510695815
 C       -14.9312676888       11.1373309502        6.8572639179
 C       -13.1740843952       12.3599981023        4.5504315712
 C       -15.4367171997       12.0207914710        3.5418745821
 C       -15.8473219367        6.4334787007        5.0704755188
 C       -14.0291193701        5.1169147177        6.1711058317
 C       -12.7569633577        4.8329038352       -1.4387077584
 C       -14.4670258666        3.0105166041       -1.1839930214
 C        -8.7518870395       -0.6911946334        0.9839704199
 C        -6.5993565062        0.6307020864        0.7020094844
 C        -5.7164814568       -4.1624708669       -4.4510553770
 C        -3.8620282846       -3.5934758937       -2.6418907260
 C        -6.6499844098        2.2487173032       -5.9768091724
 C        -4.2306526550        2.9083261191       -6.3285937411
 H        -4.7939588092        5.1941000171       -6.1830541751
 H        -4.1411954695        5.6027468888       -4.4663546917
 H        -5.5032362710        6.1922645161       -4.9552019427
 H        -2.8131605469        0.8666974291       -4.8747209424
 H        -4.2227503777        0.0345779450       -5.6810453512
 H        -4.4434687908       -0.5485705382       -2.8590022171
 H        -2.7675370888       -1.0267592422       -3.2739128154
 H        -7.9167232581       -2.3027051184       -3.8571870312
 H        -7.0689588664       -0.8433366705       -3.7616768361
 H        -8.5394452745       -2.0614441478       -1.4075950127
 H        -9.2995400425       -0.8061027742       -2.5482718170
 H        -9.9257949187        2.0173534381        1.8976828048
 H       -10.4485691773        1.0275319061        0.5298557628
 H       -10.5310775742        3.7432188647       -0.2464537974
 H       -10.6981796728        3.7724965411        1.4034821678
 H       -15.2061980562        3.1008770292        1.8027044620
 H       -16.0117523211        4.1095332078        0.6725012594
 H       -16.6347402733        4.4198903723        2.8380656042
 H       -16.1751842929        5.9017671577        2.3764040579
 H       -14.9076584767        8.0221940837        3.3725393759
 H       -13.4401964833        7.5710187255        2.3696208965
 H       -11.8810136767        8.5879623038        3.5156720351
 H       -12.8417524933        9.1635864517        4.9028068086
 H       -14.8689968133       10.3766203240        7.6395400025
 H       -15.9545461730       11.5797870392        6.8369226920
 H       -14.3423090313       12.0112937773        6.9058811514
 H       -13.6976085196       13.2715702286        4.9745536910
 H       -12.7530198152       12.8820852638        3.6280881794
 H       -12.4834007209       12.0429689398        5.2706266079
 H       -16.3965547433       11.7750037733        3.9847627432
 H       -15.3992431771       11.8684746379        2.4503918675
 H       -15.3693203943       13.1128371951        3.6588041694
 H       -16.4937454778        5.7676048477        5.5210656516
 H       -16.2179139847        6.8349441235        4.1202093989
 H       -15.7684835110        7.3702503103        5.6815548957
 H       -13.0654412848        4.7169708428        6.1020291647
 H       -14.5705933093        4.1349909496        6.5272091913
 H       -13.9754578933        5.7988917015        6.9653638453
 H       -12.2421493867        4.3618166730       -2.3103057439
 H       -11.9222812294        5.4779199194       -1.0129205835
 H       -13.5749156939        5.4042951425       -1.7568692699
 H       -14.0920836994        2.9586446728       -2.1613524959
 H       -15.4924069431        3.4331893321       -1.2961155120
 H       -14.4910624209        1.9636499226       -0.8427976683
 H        -8.1309141849       -1.7064120612        0.8991878731
 H        -9.7652035015       -0.9947047098        0.8478210011
 H        -8.4245831254       -0.3905684285        2.0424866530
 H        -6.0052454651       -0.2509588041        0.8973078243
 H        -6.4442589621        1.3838520052        1.5048564993
 H        -5.9365511546        1.0144591605       -0.0125407085
 H        -4.9998991329       -4.3667743393       -5.2787034081
 H        -6.6052961511       -3.8057664451       -4.9373649638
 H        -5.8015773404       -5.1219664915       -3.9767033152
 H        -3.3850672879       -4.2696337413       -3.3788937672
 H        -4.1603061909       -4.1928361151       -1.8061705236
 H        -3.1686440351       -2.9153232392       -2.3163499101
 H        -7.5579633314        2.2630439454       -5.1947651737
 H        -6.7761487884        1.2634049420       -6.5018151116
 H        -7.0033206270        3.0062811834       -6.7038811380
 H        -4.5424981123        3.3510716657       -7.2767004069
 H        -3.8567088911        1.9937805781       -6.7446975019
 H        -3.3182092823        3.4273467191       -5.8656203713
 Na       -6.3744524033        2.9988531099       -1.5157992517
