117

 C        -4.8020970276        5.4586625766       -5.1395777802
 C        -5.2214912364        4.1035155857       -4.7224348229
 O        -5.9037551190        4.1596396865       -3.6365031729
 C        -5.0921515927        2.7685234323       -5.3720115379
 C        -4.5526046140        1.6007733613       -4.2536411563
 O        -4.7411827961        1.7714810447       -3.0982569410
 C        -4.0774842183        0.1663130603       -4.8524170962
 C        -3.9851989841       -1.0869684723       -3.8654513949
 C        -4.7687421267       -2.2711544097       -4.4691679863
 O        -4.8029144426       -2.5669754093       -5.6651471727
 C        -5.3090095341       -3.1628995007       -3.3317478127
 C        -6.4093871866       -2.4503218055       -2.4211526819
 O        -6.1339442331       -2.1862530913       -1.2364998012
 C        -7.5981925794       -1.7775574042       -3.0753752169
 C        -8.5041816340       -1.1752091924       -1.9849590883
 C        -7.8246157862       -0.0281250768       -1.3549752827
 O        -7.0580930169        0.7544491507       -2.0698328227
 C        -8.0775063937        0.3128376338        0.1502932481
 C        -8.6511925111        1.9627026946        0.3380165113
 O        -8.1140182507        2.8336885888       -0.3027691847
 C        -9.9210396249        2.2557471921        1.1533761709
 C       -10.9043889947        3.2906654046        0.6076466429
 C       -12.3217396639        2.6314844922        0.2291772100
 O       -12.5483885686        1.4602828894        0.3346480007
 C       -13.3822646810        3.6413455257       -0.4475172974
 C       -14.0342951261        4.5170790221        0.6859904840
 O       -13.4576614533        5.5778192877        0.9404385599
 C       -15.4182142768        4.1678157917        1.2139395742
 C       -15.6597427307        4.8507045752        2.6134856357
 C       -14.6766352949        4.6836865460        3.7213926640
 O       -14.0462349398        3.6075484560        3.8571107860
 C       -14.6008745346        5.7367158581        5.0060368794
 C       -13.6083058866        6.8974047969        4.4966285057
 O       -12.4363131396        6.6190309279        4.6515226265
 C       -14.1228760633        8.0696855977        3.5463018084
 C       -13.1948504859        9.3787592221        3.8582121379
 C       -13.6910983181       10.4904129560        3.0191922882
 O       -13.4744896597       10.7003949274        1.8476671320
 C       -14.2786345002       11.5907898982        3.9720641926
 C       -15.0522457059       10.9081895149        5.1283038855
 O       -15.8344751228       10.0496229155        4.9889032536
 C       -14.6613312724       11.2618463458        6.6579301106
 C       -13.2471946239       12.5663052648        4.4890573431
 C       -15.1865227451       12.5292821555        3.2082889985
 C       -15.9746386729        6.2114844112        5.3541580486
 C       -13.8739446773        5.0221752618        6.1483382839
 C       -12.5678729691        4.6082907655       -1.4153306220
 C       -14.3219508016        2.7898476271       -1.2344595460
 C        -8.8173970850       -0.8118101549        0.9061901284
 C        -6.5732382832        0.4370468313        0.8472966310
 C        -6.0788932849       -4.5235955996       -4.0109424831
 C        -4.0439682844       -3.6745563101       -2.4471709133
 C        -6.5201217627        2.1619751515       -5.6354782284
 C        -4.2272098411        2.7461902682       -6.5739877336
 H        -4.2137001165        5.2967677824       -6.1061569151
 H        -4.3347823934        6.0480468954       -4.4213683853
 H        -5.6381962945        6.1466444922       -5.3950745023
 H        -3.2176699748        0.4136932651       -5.5200297812
 H        -4.9286072753       -0.0775525787       -5.5404587990
 H        -4.4653475719       -0.7028424251       -2.9517494861
 H        -2.9617362927       -1.2179851064       -3.6574306886
 H        -8.1045088823       -2.3782874599       -3.7127870611
 H        -7.3464848518       -0.9831524944       -3.7735910634
 H        -8.7498029262       -1.9493417307       -1.2496893764
 H        -9.3147853487       -0.8232700860       -2.4635251175
 H        -9.3943030507        2.7242914887        2.1079290034
 H       -10.4994539617        1.2858305501        1.3815959519
 H       -10.5739475994        3.6754537557       -0.3439719621
 H       -11.0799616779        4.2281995150        1.1842911231
 H       -15.5377280380        3.0327415801        1.5955494344
 H       -16.2287622506        4.4008386931        0.5107473380
 H       -16.6002333445        4.4788058419        3.0202502711
 H       -15.9696124649        5.9009433447        2.4789449502
 H       -15.1672584240        8.2576036428        3.8370489825
 H       -13.8453446034        7.7864071022        2.4873279386
 H       -12.3112571312        9.1729763378        3.4110410026
 H       -13.0695786680        9.3929666893        4.9249572488
 H       -15.6228487744       11.5251796450        7.0967247929
 H       -13.8300510261       12.0112788881        6.6928271107
 H       -14.2712335233       10.4185208721        7.1631153226
 H       -13.6196379341       13.2131260240        5.2735888153
 H       -12.8544842113       13.2982868521        3.7071787425
 H       -12.4778656764       11.9234206164        4.8634581980
 H       -15.9905657710       12.9104555487        3.8644314948
 H       -15.5785161562       12.2379324662        2.1981841814
 H       -14.6185751494       13.4295402531        2.9355018636
 H       -16.4837658352        5.4547360739        5.9630506734
 H       -16.6222570463        6.3313739006        4.4312619391
 H       -16.1292770477        7.2416766622        5.7899490830
 H       -12.9572589030        4.5292681904        5.8459612099
 H       -14.4926357119        4.1600763031        6.6209510721
 H       -13.6398159430        5.5271698603        6.9978362357
 H       -11.8061273244        4.1664561505       -2.1047039709
 H       -11.9816825778        5.2914049748       -0.6864699258
 H       -13.1793654862        5.1137120394       -2.0424370425
 H       -13.8475113872        1.9022630422       -1.6299128731
 H       -14.7186268283        3.3350375808       -2.1139706790
 H       -15.0714367688        2.3856624892       -0.5863816347
 H        -8.0338371953       -1.5655038970        1.3086267372
 H        -9.6583282647       -1.1478016575        0.4655551949
 H        -9.0689989980       -0.3508413438        1.8784358187
 H        -5.8570783694       -0.1296263956        0.2197800367
 H        -6.5977299964        0.1718060044        1.9473765950
 H        -5.9613072575        1.3139926621        0.9350303263
 H        -5.3592562827       -5.2907981936       -4.4703018279
 H        -6.8798013000       -4.2251666982       -4.6713433321
 H        -6.6309609545       -5.0417034130       -3.2186989958
 H        -3.2286520238       -4.1477043078       -2.9839267063
 H        -4.5481815358       -4.3566850444       -1.7516074399
 H        -3.6185328252       -2.9079097244       -1.8788922698
 H        -6.9692943838        1.9157982593       -4.6496540563
 H        -6.6501694064        1.3478463818       -6.2293946838
 H        -7.1384720850        2.8275712810       -6.1133385786
 H        -4.5827669635        3.2474983767       -7.4032024022
 H        -4.2051314624        1.8103576060       -7.0016684291
 H        -3.1820319037        3.0610733085       -6.4396273930
 Na       -6.3657851578        2.9150102577       -1.8857822321
