117

 C        -4.2696601561        5.0807660844       -5.3657422207
 C        -4.8397680650        3.9555891803       -4.7089831308
 O        -5.2604193726        4.0467651188       -3.5496978394
 C        -5.0930043418        2.5944440092       -5.4031697131
 C        -4.5298284939        1.4491648061       -4.4417617281
 O        -4.1959162687        1.7665897198       -3.3737786183
 C        -4.4503309688       -0.0149457845       -4.9551159044
 C        -4.4117866859       -1.0277376457       -3.7756845437
 C        -4.9935646199       -2.4867456019       -4.2137488171
 O        -4.9911991391       -2.9421117866       -5.3352209265
 C        -5.5204924920       -3.3684565561       -3.0266452742
 C        -6.4202352625       -2.3449411502       -2.2567499667
 O        -6.0930836003       -1.8009968464       -1.2123265768
 C        -7.9061612539       -2.2067962322       -2.7088437777
 C        -8.7450716434       -1.3118656916       -1.7400367100
 C        -8.0156370795       -0.0630100175       -1.3012100845
 O        -7.3136585884        0.5156351491       -2.2149635336
 C        -8.1096111094        0.4193625149        0.1413189862
 C        -8.8226403719        1.9442608520        0.1966074731
 O        -8.3588351064        2.6826821997       -0.6699644317
 C        -9.7518747131        2.2833294489        1.2688348372
 C       -10.8517977383        3.3755342105        0.7841262658
 C       -12.1133750418        2.6652015842        0.2105165699
 O       -12.1952551448        1.4329767238        0.3886802823
 C       -13.1977549411        3.4020637994       -0.5236199979
 C       -13.8292812605        4.4051752131        0.6382198830
 O       -13.1947937800        5.4330269153        0.8684404691
 C       -15.0338144638        3.9460525560        1.3683726302
 C       -15.3953253690        4.9489070907        2.4501366512
 C       -14.6373295042        4.6238987916        3.7683622459
 O       -14.0592402368        3.5859264753        4.0093736796
 C       -14.4802540147        5.8052743992        4.8763353770
 C       -13.6459799721        7.1242625263        4.6577626786
 O       -12.5448373873        7.1918724711        5.0929534033
 C       -14.3373656285        8.2919550366        3.9652584954
 C       -13.1239323517        9.4201247769        3.6070078604
 C       -13.5751098268       10.6846241660        2.9697836891
 O       -13.6137839122       10.7878670642        1.7490794318
 C       -14.2055635736       11.9912416032        3.7030247142
 C       -15.3059682089       11.4585067740        4.9863033432
 O       -16.4678234590       11.3954573120        4.8352606086
 C       -14.8283468212       11.3515180111        6.4271234849
 C       -12.9999794518       12.8073744203        4.3551202330
 C       -15.0194317419       12.9301805463        2.7341875661
 C       -16.0046527726        6.1192671006        5.2289736687
 C       -13.7904777897        5.0137456549        6.0271103028
 C       -12.5156180651        4.3922878833       -1.5325111082
 C       -14.2088702122        2.3954364872       -1.0886077076
 C        -8.9930383752       -0.5260671778        0.9298530909
 C        -6.8196477884        0.3365096479        0.8323892832
 C        -6.2016507085       -4.4923691850       -3.6783673892
 C        -4.4866402533       -3.7565722816       -2.0276866936
 C        -6.6299207980        2.2743070068       -5.5177523337
 C        -4.3559615272        2.4164169838       -6.7577695633
 H        -3.1660531893        5.0985478663       -5.0558929096
 H        -4.6948708894        6.1214347019       -5.1022394697
 H        -4.3046846229        4.9888140712       -6.4494384509
 H        -3.5951079109       -0.1865836236       -5.6352781260
 H        -5.2199078412       -0.2252803171       -5.7112530766
 H        -5.0715019339       -0.5784694294       -3.0700455896
 H        -3.4053473431       -0.8715538435       -3.4313983192
 H        -8.3355872302       -3.1784509265       -2.6921898699
 H        -8.0569983320       -1.9237715672       -3.7744929529
 H        -8.9194206712       -1.9489307989       -0.9039263593
 H        -9.6131572212       -0.9938027719       -2.1874172776
 H        -9.2501547872        2.9984050925        1.9790069385
 H       -10.3047048148        1.3721548060        1.5901070566
 H       -10.3978891259        4.0740202009        0.0992562300
 H       -11.1915676426        3.9833142634        1.7173399555
 H       -14.7583638603        3.0413738529        1.9739775051
 H       -15.9198402331        3.7354563305        0.6300310716
 H       -16.4643252420        5.0494656272        2.6158917039
 H       -15.1283009425        5.9782150718        2.0467035699
 H       -15.0681984519        8.6861035639        4.6877413585
 H       -14.6334856167        8.0671482433        2.9342593041
 H       -12.5576901540        8.8912438582        2.9473635170
 H       -12.5660958315        9.6951322931        4.5062673589
 H       -13.8452685821       10.7606960831        6.5041050545
 H       -15.6550947420       10.8371531012        6.9789678076
 H       -14.5743256860       12.3502546695        6.7310094231
 H       -13.3516982284       13.3761717148        5.2196763666
 H       -12.4477659080       13.3796043246        3.6298859138
 H       -12.2847347212       12.1699232757        4.6279744716
 H       -14.5884732418       13.8528999248        2.6988179793
 H       -15.9960586182       13.1071540626        3.0018435697
 H       -15.0170737096       12.5322362869        1.7500657829
 H       -16.5397779983        5.3258704457        5.6825681044
 H       -16.6827477667        6.3851136863        4.3638807901
 H       -16.1439402104        6.9369847486        6.0363585104
 H       -12.8176997568        4.7983978930        5.8546532900
 H       -14.3458240437        4.1381021096        6.5292676807
 H       -13.7249799611        5.5655385265        6.9439907547
 H       -11.8751904059        3.8916684576       -2.2816286057
 H       -12.0006143559        5.1369245950       -0.8951463547
 H       -13.1395588351        4.9268771998       -2.2356353006
 H       -13.7418437945        1.8210936031       -1.8782091020
 H       -15.1177556057        2.9547082659       -1.5183555403
 H       -14.5026447787        1.6652872935       -0.3003276595
 H        -8.4510128431       -1.4357170101        1.1518758468
 H        -9.9356416015       -0.6019885690        0.4411894684
 H        -9.3273176401       -0.0080146676        1.7617490149
 H        -6.4788394122       -0.6294897117        1.3025847004
 H        -6.5331116650        1.1671818899        1.5763490250
 H        -6.0338879917        0.5189290174        0.1158997465
 H        -5.5020411148       -4.9568677790       -4.3960082495
 H        -7.0354668591       -4.0854500018       -4.2026976274
 H        -6.7048165566       -5.1413915662       -2.9980640212
 H        -3.6358334130       -4.3530073760       -2.6288392695
 H        -4.9898272513       -4.5378569350       -1.4700221259
 H        -3.9421889652       -3.0941827012       -1.4110405570
 H        -6.9824646599        2.1793139026       -4.4600169642
 H        -6.8525785681        1.3250905007       -5.8864144403
 H        -7.2483134467        2.8876311744       -6.0836072853
 H        -4.0468934208        3.2646206868       -7.3704472029
 H        -4.9584182436        1.7841391914       -7.3449096640
 H        -3.4324807920        1.7908684074       -6.7398738556
 Na       -6.1490970997        2.4257536633       -2.0785307764
