117

 C        -4.0745374304        5.0365984520       -5.3726794640
 C        -4.7970058193        3.8532099381       -4.7145290489
 O        -5.1417127460        3.9078517311       -3.5613918470
 C        -5.1282390239        2.4350884695       -5.4453615571
 C        -4.5550496762        1.3447502437       -4.4162006357
 O        -4.2394843448        1.6395577245       -3.2776463800
 C        -4.5383814334       -0.1162167388       -4.8949775173
 C        -4.4673040139       -1.0349200875       -3.6505803704
 C        -4.9806787224       -2.3127691169       -4.0745700269
 O        -4.9784790952       -2.7258195901       -5.1888952514
 C        -5.6768333122       -3.4155753547       -2.9578850098
 C        -6.6173811314       -2.4862662493       -2.1512014361
 O        -6.1524234272       -1.7649900585       -1.2888514761
 C        -8.0594567770       -2.3129424031       -2.6882932241
 C        -8.8101748186       -1.4021500304       -1.6426558009
 C        -8.0819930473       -0.1346115914       -1.3766721653
 O        -7.4453263468        0.5162042509       -2.2164249189
 C        -8.2024729712        0.3678986756        0.1465200632
 C        -8.6879541319        1.8364372662        0.0193636925
 O        -8.3111548636        2.5598320037       -0.8376599540
 C        -9.5600515941        2.4728223204        1.2806773953
 C       -10.7539664277        3.3643291231        0.7222758472
 C       -11.9628507951        2.5660069070        0.1964112297
 O       -12.1270864821        1.3664605473        0.3326725405
 C       -13.1361544635        3.3971788106       -0.4465425953
 C       -13.6910952181        4.4158648110        0.5976277860
 O       -13.0561641552        5.3981706600        0.8228409786
 C       -14.9317585797        4.0153934606        1.3958012246
 C       -15.3964234419        5.0472198702        2.5680962590
 C       -14.4745091041        4.7817774815        3.8126686484
 O       -14.0191718941        3.7081773668        3.8784340353
 C       -14.5110304596        5.8375284706        4.9444808809
 C       -13.6892956189        7.1823604270        4.6267481624
 O       -12.5612637321        7.2359224817        5.0994932326
 C       -14.3620119788        8.3753149157        3.9463659810
 C       -13.2071151778        9.5083393803        3.7428372246
 C       -13.8313184955       10.6034933088        2.9565017530
 O       -13.6601022023       10.6458219883        1.7582679900
 C       -14.3145103149       12.0133660387        3.7451667225
 C       -15.2822673788       11.7012547594        4.8570223632
 O       -16.5045250884       11.6246332546        4.6791722833
 C       -14.6752247646       11.3747852716        6.2885974262
 C       -13.1055265910       12.6764045399        4.3946123652
 C       -14.8739884455       12.9475271468        2.6803170804
 C       -16.0595725201        6.0427691720        5.2222424381
 C       -13.8284514375        5.2679885158        6.2085654950
 C       -12.4629067983        4.2662521160       -1.6589378893
 C       -14.1725822558        2.3839925697       -1.0893302990
 C        -9.1993667910       -0.5398658511        1.0986165722
 C        -6.7171082283        0.5919974957        0.7877268835
 C        -6.2669056345       -4.6143002738       -3.6071052075
 C        -4.4248013612       -3.7710740736       -1.9986549448
 C        -6.6208018747        2.3129700088       -5.5306590813
 C        -4.4346791312        2.3845542563       -6.9511999311
 H        -3.1863402507        5.2406497765       -4.8195070111
 H        -4.7306916937        5.9627982517       -5.1800837682
 H        -3.8797729051        4.9713789001       -6.4194661618
 H        -3.8113115521       -0.4462019506       -5.6481960926
 H        -5.4310735299       -0.2957513247       -5.5456052300
 H        -5.0512704835       -0.6434531604       -2.8967309909
 H        -3.3681608423       -0.9946277627       -3.3208373199
 H        -8.5726065319       -3.2115025070       -3.0564365815
 H        -7.9389111897       -1.6966607128       -3.5123255464
 H        -8.9011725145       -2.0181237682       -0.7819566018
 H        -9.7877474046       -1.0171961497       -2.0269159113
 H        -9.0896426400        3.2989120400        1.8779411682
 H       -10.1191276569        1.6045883432        1.7403907597
 H       -10.3708146671        4.0383894893        0.0136292293
 H       -11.2427050756        3.9759509153        1.5235478053
 H       -14.9792737888        3.0855999506        1.7749064774
 H       -15.8029265629        4.2264870727        0.6556672062
 H       -16.4378716342        4.7697835495        2.7354717846
 H       -15.4925939951        6.0770600397        2.1516756871
 H       -14.9548416368        8.8588460933        4.7913457675
 H       -14.8052959560        8.2758463299        2.9683424421
 H       -12.4921133297        9.0405818950        3.0507601221
 H       -12.7654411712        9.7634721818        4.6360394283
 H       -14.5100942008       10.2855492949        6.1469212931
 H       -15.4075448154       11.4601181439        7.0640634617
 H       -13.6469507836       11.7665159686        6.5306870360
 H       -13.3100244399       13.1622933669        5.3536797618
 H       -12.5905189539       13.2304970048        3.6820747187
 H       -12.2949127568       11.9071977152        4.5137766227
 H       -14.2214230394       13.8206327288        2.5160009493
 H       -15.8563379617       13.3800978476        2.7215144523
 H       -14.7478924032       12.3594894581        1.7702828204
 H       -16.6128726684        5.3340067315        5.8442467348
 H       -16.7248991701        6.1567017159        4.3548762507
 H       -16.1922490043        6.9503721580        5.8693287128
 H       -12.7482662469        5.1752199616        6.1069388292
 H       -14.1454486893        4.4619525172        6.6313211909
 H       -13.8978033884        5.9314144306        7.0897118835
 H       -11.9055601176        3.6191935118       -2.3149760708
 H       -12.1257520693        5.1996530131       -1.4234260452
 H       -13.3482514121        4.3486734376       -2.3804330360
 H       -13.8140440704        2.3286452117       -2.1128074186
 H       -15.2325930998        2.6710532759       -1.0881852570
 H       -14.0178262469        1.3425975752       -0.6831838048
 H        -8.9099220251       -1.5367316585        0.9496046768
 H       -10.3348871710       -0.2417173596        0.9232657781
 H        -9.1286065474       -0.1144848955        2.1011489169
 H        -6.2243356859       -0.3780610930        0.9755052233
 H        -6.3678193841        1.2170779775        1.6112717142
 H        -6.0793318884        0.9844313834       -0.1067813639
 H        -5.5467166374       -5.0091222312       -4.2564913657
 H        -7.2405059431       -4.4913138281       -4.1382146153
 H        -6.5684482862       -5.2808750031       -2.7647323989
 H        -3.8775759080       -4.4995371578       -2.3498757745
 H        -4.7760482034       -4.1034038058       -1.0938917909
 H        -3.7046135266       -2.9795164164       -1.7919062808
 H        -7.1085171710        2.2913967887       -4.6490330626
 H        -6.9919842951        1.4477223132       -6.0464700866
 H        -6.9437920222        3.1772222426       -6.1199942085
 H        -4.3909277061        3.3378691965       -7.4453022062
 H        -5.0390330126        1.6844881112       -7.5050946532
 H        -3.5040734842        1.9791651539       -7.0506521993
 Na       -6.1226769778        2.3760866314       -2.0369933564
