117

 C        -5.1809276671       11.5165114574        0.4898593717
 C        -6.2175876568       11.0152102843        1.6333576296
 O        -7.4234885823       11.0920172105        1.5532412900
 C        -5.6331982422       10.2379852003        2.8387976959
 C        -5.4646841228        8.6970268609        2.4174623683
 O        -4.4241923312        8.2032550517        2.6468626238
 C        -6.6498914455        7.9534327151        1.7836928988
 C        -5.9674215736        6.5655854370        1.5056367999
 C        -6.8874889862        5.5399978803        0.8324887192
 O        -7.9965387157        5.3611937637        1.2659177090
 C        -6.4190513842        4.7039336581       -0.4602919206
 C        -6.0807661659        3.1850240279        0.0387953528
 O        -4.9635502004        2.7830589483        0.0296224933
 C        -7.2302175707        2.3463974771        0.5663167146
 C        -6.8969767749        0.8499369862        0.6861968937
 C        -8.0824597236       -0.0967555328        1.1825481275
 O        -9.0578366731       -0.4336219289        0.4816023557
 C        -7.9707196467       -0.6432856326        2.6096015849
 C        -8.8094319302        0.4196851446        3.3826258986
 O        -8.1911515499        1.3052759702        3.8774368665
 C       -10.3149378640        0.1142151854        3.4236098435
 C       -11.1177168101        1.4277815205        3.5396532398
 C       -11.1009441992        2.1503602201        2.2352115793
 O       -10.3626278744        1.7976082689        1.3393033110
 C       -12.2519327179        3.2795270854        1.9072142692
 C       -13.2794571378        2.6963143983        0.8167516146
 O       -12.9848161332        1.7625296502        0.0729437023
 C       -14.7241256029        3.3099557537        0.8090224748
 C       -15.5486837131        3.0583995239       -0.5503695825
 C       -15.1574803505        4.3121417037       -1.4760083235
 O       -14.9354739135        5.4259790308       -0.9275699934
 C       -15.2206955026        4.2176600395       -3.1332144791
 C       -13.9975969229        3.5126662974       -3.7131092037
 O       -14.1488632301        2.4492060264       -4.2778420028
 C       -12.6673360211        4.2363712235       -3.8057941777
 C       -11.4569569416        3.3115048316       -4.3659931382
 C       -10.7880695268        2.4044362138       -3.4259921116
 O       -10.5512654052        2.6703410659       -2.2783709403
 C       -10.3878557027        0.9640186007       -4.0352934003
 C       -11.5352662777       -0.0308846249       -3.4753255573
 O       -11.8366032836        0.0645742643       -2.3086842612
 C       -12.2774239275       -0.9400253584       -4.3494657530
 C       -10.3083199455        0.7823636435       -5.5490259817
 C        -9.0055451138        0.5087246767       -3.4803130268
 C       -16.5463713607        3.5054057477       -3.4894405455
 C       -15.2221891977        5.7001948494       -3.7735834801
 C       -12.9733301272        3.7945633939        3.1905834782
 C       -11.5724879778        4.4429244188        1.1269367157
 C        -8.5618418549       -2.1360463334        2.6518126365
 C        -6.5244703861       -0.8210929276        3.2758848540
 C        -7.4699641367        4.6473434514       -1.5982089327
 C        -5.0645438572        5.1805883432       -0.9480914047
 C        -4.2747294791       10.9444426660        3.2962040724
 C        -6.5583223509       10.3814456040        4.0198241547
 H        -4.3859738961       12.0014027283        0.9355130026
 H        -5.5890793541       12.3773008915       -0.1141721017
 H        -4.8531150396       10.7496110632       -0.2132651775
 H        -7.1080713045        8.5086192975        0.8734406820
 H        -7.4250094595        7.8013733490        2.5670724070
 H        -5.6362844441        6.1027878512        2.4023057961
 H        -5.1050281383        6.6677876284        0.8877373426
 H        -8.0321739908        2.4000397662       -0.1828072013
 H        -7.8614146094        2.6915059289        1.4392508632
 H        -6.0660055941        0.6758142365        1.4819430264
 H        -6.5406737943        0.4243595743       -0.2500757734
 H       -10.7278581033       -0.6012144129        4.0833734364
 H       -10.4732421486       -0.3191709392        2.4614914389
 H       -10.6874449253        1.9916456572        4.3093674643
 H       -12.1224713680        1.2044399515        4.0026436001
 H       -14.6562601642        4.3575456751        1.1228981928
 H       -15.2645942021        2.8692797610        1.6780829103
 H       -16.5933839503        3.2377124707       -0.3096418950
 H       -15.3643822758        2.1012966770       -0.9631078567
 H       -12.4398765225        4.5539853069       -2.7954292078
 H       -12.8377540888        5.0749397359       -4.4782920303
 H       -10.5232397489        3.9031644907       -4.6324674256
 H       -11.7972240093        2.6699378620       -5.2448881846
 H       -12.5079056039       -1.7544641659       -3.6761757545
 H       -11.6840621394       -1.1496751093       -5.2305844065
 H       -13.2541997711       -0.4938244937       -4.6608028377
 H        -9.8760615965        1.6542666705       -6.1308365352
 H       -11.2236957344        0.8505391200       -6.0652738068
 H        -9.8317504923       -0.1428214569       -5.7878056204
 H        -9.0826202196        0.0964415582       -2.5760237963
 H        -8.2794130041        1.3168930161       -3.4192833906
 H        -8.6401389084       -0.2745076133       -4.1909496610
 H       -16.6745218110        2.6650462651       -2.8498184471
 H       -16.5361146375        3.1207105854       -4.5022269713
 H       -17.2793703060        4.2027426467       -3.4098622947
 H       -15.1878385342        5.6280408552       -4.8504112206
 H       -14.3134964965        6.1971683536       -3.3744932039
 H       -16.0843733878        6.2670626651       -3.5674812884
 H       -12.2638083334        4.1288569845        3.9005421308
 H       -13.5914341513        3.0217046049        3.6208724293
 H       -13.7308371386        4.4512832037        2.9745979020
 H       -10.8420710297        5.0057793132        1.7009846935
 H       -12.3198253237        5.0402384543        0.7105989804
 H       -10.9981045057        4.0014183842        0.3174780188
 H        -8.6962242022       -2.5495258875        3.6627666640
 H        -7.8428898419       -2.7545875313        2.2268721557
 H        -9.4539938218       -2.1580583690        2.0121936905
 H        -5.7461584402       -0.9427152868        2.5346895750
 H        -6.4491766142       -1.6579964722        3.9321079962
 H        -6.2030614878        0.1738322375        3.7120665326
 H        -8.3419050167        5.2386867060       -1.4736439141
 H        -7.8721518056        3.6099237605       -1.8002167322
 H        -6.9982747197        4.8371025122       -2.5534107513
 H        -4.9900909878        6.2656884549       -1.1736993204
 H        -4.6481433471        4.5003015519       -1.7560944645
 H        -4.3434400721        5.0497647346       -0.1385172543
 H        -3.4288713028       10.9670612512        2.6479772748
 H        -4.0485089566       10.4897174401        4.2736572545
 H        -4.3346167724       12.0037818724        3.4446662030
 H        -7.5431480010        9.9463331545        3.8099612339
 H        -6.7530807319       11.4082120643        4.2353380337
 H        -6.1567246973        9.9189793341        4.9299145442
 Na      -10.4905065657        1.0161330903       -0.6996235124
