117

 C        -3.9211853255        4.9137495381       -5.3501505847
 C        -4.7230570067        3.7693216046       -4.7185202781
 O        -5.1470671473        3.9377055583       -3.5795126023
 C        -5.0937611326        2.4613185110       -5.4851908057
 C        -4.5757854937        1.2976852996       -4.4996032278
 O        -4.2588443170        1.4546646605       -3.2424283764
 C        -4.5951347780       -0.1118961221       -4.8058901660
 C        -4.5273721983       -1.0837334079       -3.5510067301
 C        -5.0058897060       -2.4213460780       -3.9691861260
 O        -5.0209450133       -2.6584988624       -5.1591554503
 C        -5.6558812605       -3.4808564437       -2.9109799571
 C        -6.7697787271       -2.5115568327       -2.1447774258
 O        -6.3619280252       -1.7796335956       -1.2254203047
 C        -8.1167717953       -2.3537593638       -2.6829590381
 C        -8.9554224359       -1.5356400096       -1.6682257721
 C        -8.1842971494       -0.2775387571       -1.2344960791
 O        -7.6769592549        0.3493054448       -2.0925269730
 C        -8.1936926617        0.4005754375        0.1198771653
 C        -8.6261093934        1.8514122227       -0.0481805044
 O        -8.2962427136        2.6289772440       -0.9241022603
 C        -9.4221838031        2.6015950990        1.0801445027
 C       -10.6559807187        3.3514979598        0.6646128256
 C       -11.8523427548        2.4820187651        0.2087958254
 O       -11.8642907937        1.2981719026        0.3320136437
 C       -13.0492165251        3.3344364775       -0.5959999238
 C       -13.5779654526        4.4282698588        0.5854960827
 O       -12.9183309397        5.4166273549        0.8452030439
 C       -14.9647401075        4.1338764858        1.2680409324
 C       -15.2675524018        5.1170070898        2.5044348529
 C       -14.4254268196        4.8314548026        3.7382350075
 O       -13.7586711661        3.7869487965        3.8978519263
 C       -14.5705692914        5.9212205850        5.0499780989
 C       -13.7992295375        7.2031922307        4.7474363278
 O       -12.5743647660        7.2708729208        4.9832448556
 C       -14.4190796597        8.3652485729        4.0050393894
 C       -13.3995491683        9.5133913099        3.9624511399
 C       -13.7957474103       10.7473086208        2.9369465034
 O       -13.8927781788       10.6128334568        1.7436710683
 C       -14.1510043626       12.0217354745        3.6263024499
 C       -15.3184552487       11.7514171895        4.7694602846
 O       -16.5148830647       11.8834588537        4.5508492807
 C       -14.7703601815       11.2241241421        6.1552673942
 C       -12.9036330024       12.6121826033        4.3002336817
 C       -14.8755893502       12.9985717310        2.5898980918
 C       -16.0003973375        6.1795254874        5.3290077875
 C       -13.9742032212        5.4168958742        6.3502478510
 C       -12.4789679429        4.1315067379       -1.7275443890
 C       -14.1751954157        2.4392888002       -1.0208330943
 C        -9.0560369021       -0.3518201865        1.1602527974
 C        -6.8181779458        0.6555531048        0.7161448126
 C        -6.2752085111       -4.7091029951       -3.4922820653
 C        -4.4014460881       -3.8014121793       -1.9779288551
 C        -6.5777988030        2.3917466837       -5.5798026606
 C        -4.5589554066        2.3004019339       -6.9042708864
 H        -3.2097775573        5.2842914963       -4.6563377150
 H        -4.5825911672        5.6668822871       -5.3166477121
 H        -3.5393117826        4.8111586363       -6.3814457630
 H        -3.8069465349       -0.4053778619       -5.5100691914
 H        -5.4201172131       -0.3661501252       -5.5028159438
 H        -4.9811029611       -0.6470074395       -2.5869686491
 H        -3.4811205865       -1.3277989470       -3.3300772035
 H        -8.5227692613       -3.3778447967       -2.8809698228
 H        -8.0626596603       -1.7846375175       -3.6075611944
 H        -9.1714096476       -2.3228405788       -0.8452898563
 H        -9.9045367153       -1.1436142367       -2.2106667771
 H        -8.8824513248        3.4628765759        1.4117681938
 H        -9.7954242782        1.8793259987        1.7725071963
 H       -10.3222226069        3.8304228546       -0.3000771976
 H       -10.9564208675        4.0848045748        1.3172086381
 H       -14.9594967950        3.1627438945        1.7650125961
 H       -15.7658807509        4.2130848547        0.6944077006
 H       -16.3421947590        4.8894121632        2.6678347895
 H       -15.2237469640        6.1472402167        2.2738840494
 H       -15.1654485108        8.9657372464        4.5015178887
 H       -14.5785251729        8.0568692186        2.9855325135
 H       -12.4440953578        9.0454345083        3.5278834809
 H       -13.2008647874        9.7212228590        5.0154418852
 H       -15.2208173508       10.3362255247        6.5490340262
 H       -14.9980837328       12.0231095075        6.8517422158
 H       -13.6907206106       11.1372623290        6.0740827937
 H       -13.1792072915       13.4340723432        4.9536259750
 H       -12.2137124478       12.7718414420        3.4565631908
 H       -12.1956134831       11.8771075937        4.8782348478
 H       -14.4051220717       14.0328929901        2.3938324924
 H       -15.9653224006       13.2843807073        2.8909407373
 H       -14.9094442888       12.4708641595        1.6095829385
 H       -16.6358998476        5.3180949521        5.7351832511
 H       -16.5621422303        6.4767176393        4.4667891429
 H       -16.1609154937        6.8589049006        6.0957546899
 H       -12.8698334467        5.3050328679        6.2849217087
 H       -14.2799887157        4.4002858200        6.7552275772
 H       -14.0825076142        5.9779970432        7.2273732926
 H       -11.8730355769        3.4765610623       -2.3374638829
 H       -12.1511952691        5.1576765950       -1.4330866300
 H       -13.3035547769        4.3028902377       -2.4325726327
 H       -14.2245587739        2.4720595480       -2.1319009457
 H       -15.1065265805        2.6800970503       -0.5946618824
 H       -13.9049504267        1.4415321678       -0.7124958268
 H        -8.8936073725       -1.3823658141        0.7637444874
 H       -10.0794596131        0.0060308139        1.1138850519
 H        -8.8171493825       -0.1005235671        2.2527020298
 H        -6.2392844865       -0.2829203317        0.7202026269
 H        -6.7087832845        0.9016647819        1.7422833942
 H        -6.1594251369        1.4455419997        0.2095649587
 H        -5.5362865215       -5.1455191215       -4.1656101828
 H        -7.2065841432       -4.5716403666       -4.0749498592
 H        -6.5736505803       -5.3737579491       -2.6622694274
 H        -3.8972806314       -4.7560764572       -2.1588476929
 H        -4.6259516281       -3.8606547276       -0.9378374791
 H        -3.6268477255       -3.1075281700       -2.0120563581
 H        -7.1909902479        2.4261191785       -4.6800124119
 H        -6.9026750423        1.4561099443       -6.0954493232
 H        -6.8808100267        3.2449211770       -6.2420271848
 H        -4.9610372443        3.1176198857       -7.4721736968
 H        -4.9231613697        1.3222620063       -7.2475480309
 H        -3.5079786758        2.3226306547       -7.1192973688
 Na       -6.1505333706        2.3647951390       -2.0024856753
