117

 C        -5.4925810218       11.4907066263        0.3471468082
 C        -6.2749750448       10.9725239763        1.4752072483
 O        -7.4907797742       11.1456374186        1.4051117957
 C        -5.6642955259       10.2906790704        2.7516262147
 C        -5.3342833240        8.8192837315        2.4919027828
 O        -4.1841240601        8.3526759012        2.4571459624
 C        -6.5165086970        7.9190732379        1.9239180726
 C        -5.9246750174        6.5140795046        1.4190183061
 C        -6.9625669877        5.5568613888        0.6942752656
 O        -8.0715436374        5.3417319457        1.1167222723
 C        -6.3099179543        4.6863720157       -0.4115788856
 C        -6.0142720631        3.1691957758        0.0570079450
 O        -4.8466479749        2.8083221212       -0.0421337215
 C        -7.2633669696        2.2792017341        0.4056384050
 C        -6.8274579152        0.8153098922        0.7167145033
 C        -7.9860838151       -0.1365972244        1.2997814445
 O        -9.0015786809       -0.2767460603        0.6895524437
 C        -7.8029810603       -0.7804433954        2.6771258820
 C        -8.7456739142        0.3242344849        3.4600085159
 O        -8.2996836596        1.3315233260        3.9860907087
 C       -10.2867092555        0.1317495158        3.5151167481
 C       -11.1970505660        1.4408191703        3.6197978811
 C       -11.2400250878        2.2029479167        2.3314303786
 O       -10.3763651631        1.9438706587        1.5046494330
 C       -12.3425067940        3.1906761234        1.9743497246
 C       -13.2910900662        2.5434575631        0.8841380437
 O       -12.8369076889        1.7437666933        0.0598910109
 C       -14.5989958879        3.2777844890        0.7469045421
 C       -15.3077977617        3.1728835417       -0.5884723560
 C       -15.0961311541        4.3530378034       -1.5071213234
 O       -14.8039815868        5.4155859404       -1.0153229509
 C       -15.2279966300        4.1933373881       -3.0662158737
 C       -13.9632893396        3.4781416871       -3.8121067233
 O       -13.9461700759        2.3701400300       -4.2293471401
 C       -12.6267386235        4.3528304927       -3.9249194481
 C       -11.5288894637        3.5258992787       -4.4600213689
 C       -10.9086114866        2.3090275176       -3.4818819303
 O       -10.7120495033        2.6047561772       -2.3217570340
 C       -10.5109883914        0.8698853813       -4.0082786615
 C       -11.6718799671       -0.0951104588       -3.3547805171
 O       -11.9030903398        0.0246604257       -2.1860084645
 C       -12.3112247002       -1.1005745421       -4.2811383487
 C       -10.3064836403        0.7780131198       -5.5304722667
 C        -9.1049344990        0.5093614492       -3.3618947046
 C       -16.4877315594        3.4152750475       -3.4312285602
 C       -15.4083480891        5.6985560911       -3.6424326308
 C       -13.0529198225        3.7620295452        3.1883202948
 C       -11.6005308968        4.3403092022        1.1773900611
 C        -8.4522059550       -2.2339017917        2.7679751219
 C        -6.4566935628       -0.8551339643        3.2835056081
 C        -7.4460654939        4.5332373118       -1.5248126725
 C        -5.1104581028        5.4442750744       -1.0690666114
 C        -4.2842891141       10.9826083592        3.0517048587
 C        -6.6869309582       10.5039280412        3.8968411176
 H        -4.7673226703       12.2283945793        0.8275638558
 H        -5.9744437715       12.1135543300       -0.4307560616
 H        -4.9525848030       10.6611328756       -0.1582016502
 H        -6.8425658650        8.4982550924        1.0607606067
 H        -7.3784285482        7.7481192500        2.5507673419
 H        -5.4689452355        5.8669580874        2.1928866050
 H        -5.1011382272        6.6391248199        0.7643211109
 H        -8.0281798999        2.2809199384       -0.4058752028
 H        -7.8934408626        2.7252537582        1.1846171018
 H        -6.0666052228        0.8584838757        1.4963400095
 H        -6.3354332961        0.2612893622       -0.1729710625
 H       -10.6579483558       -0.5384973179        4.3131832867
 H       -10.5718145115       -0.4149788579        2.6520876997
 H       -10.8349069615        2.0363221930        4.4250994454
 H       -12.1402946880        1.1111491159        4.0390416381
 H       -14.4103367492        4.3238969354        1.1267220722
 H       -15.2645997713        2.8898366076        1.5725064927
 H       -16.3097097305        3.3265310939       -0.3340074485
 H       -15.1295546031        2.2266613809       -1.0192316778
 H       -12.3518425047        4.7943271882       -2.9435724152
 H       -12.8468879910        5.1015240343       -4.6400797622
 H       -10.5668271947        4.0442434634       -4.6910832129
 H       -12.0069649362        3.0078187335       -5.3730951869
 H       -13.1551066122       -1.6600811305       -3.7257015118
 H       -11.5750678551       -1.5907970473       -4.8319156847
 H       -12.7816401271       -0.4368237921       -5.0410929355
 H        -9.5578998045        1.4661102540       -5.8574837664
 H       -11.0553414534        1.2471755089       -6.1043839926
 H       -10.0863142815       -0.2445954454       -5.8340398469
 H        -9.3638041697        0.1468157606       -2.3745114443
 H        -8.5151451402        1.3557921754       -3.1965198111
 H        -8.5387747782       -0.2306551645       -3.9539967859
 H       -16.4510066817        2.5265010955       -2.8847395134
 H       -16.4315395705        3.1017362148       -4.4581941543
 H       -17.4287298911        4.0242629710       -3.2592540527
 H       -15.5265724069        5.6931101306       -4.6804195379
 H       -14.6323411825        6.2685779856       -3.3326651919
 H       -16.3779293838        6.1493667092       -3.2531835966
 H       -12.3631157280        4.0388765422        3.9072464916
 H       -13.7842083471        3.1224930235        3.5434446427
 H       -13.6761250554        4.5697226568        2.9110246996
 H       -11.0986890340        5.0488138597        1.7629159736
 H       -12.3958633952        4.8329446053        0.6265311259
 H       -10.9132079444        3.9111833089        0.4336985169
 H        -8.4723568386       -2.6082356989        3.7221485772
 H        -7.9394279341       -2.9806060730        2.1888676364
 H        -9.4513984399       -2.0238840195        2.2636620461
 H        -5.7491797444       -1.2037573401        2.5617161550
 H        -6.3936575157       -1.4790013123        4.1329894053
 H        -6.0951879488        0.1585530317        3.4747981466
 H        -8.4856808890        4.8576315494       -1.2168668742
 H        -7.5451585049        3.4941100865       -1.8710168206
 H        -7.2020603931        5.0762882976       -2.4248829925
 H        -5.3926530700        6.4956209066       -1.0364617491
 H        -4.9745897734        5.1554006407       -2.0906601106
 H        -4.0731217176        5.3853051023       -0.6379220106
 H        -3.5239139289       10.6033931451        2.3616269788
 H        -3.9704306648       10.8160231395        4.1004474552
 H        -4.1785241204       12.0155547199        2.8318198037
 H        -7.7498751922       10.3478564076        3.6796959701
 H        -6.6564936301       11.5144768410        4.3089773369
 H        -6.3789718468        9.8291076939        4.7145784151
 Na      -10.5780167871        1.0615305989       -0.6565188747
