117

 C        -3.2498441577        3.6946401520       -4.6357007348
 C        -4.6258642594        3.0955834720       -4.7858377224
 O        -5.6647070051        3.6634025314       -4.3264219215
 C        -4.7896587260        1.6790478403       -5.3876820636
 C        -4.8848292454        0.6095925590       -4.2032537535
 O        -5.0003765588        0.9553167468       -3.0836191743
 C        -4.9088769959       -0.9352122807       -4.5945564007
 C        -4.8270552817       -1.8424747788       -3.3815634693
 C        -6.0291112954       -2.9578697440       -3.5878264315
 O        -6.7650327520       -2.9086106766       -4.5807717079
 C        -6.2439988397       -3.9700253951       -2.4137608684
 C        -7.1723100929       -3.1510073516       -1.4220147295
 O        -6.8065181409       -2.9196219086       -0.3114697528
 C        -8.6098514562       -2.6799448960       -1.8711706778
 C        -8.9897713696       -1.4938214883       -1.0528818808
 C        -8.1945644034       -0.0733319514       -1.1167086125
 O        -7.9380705220        0.4506409998       -2.1892870125
 C        -7.8289820912        0.7171343332        0.1751053462
 C        -8.2637566340        2.2756053334        0.0206970660
 O        -7.6399453771        2.9959109027       -0.7188240833
 C        -9.1006625243        2.9378884941        1.2709090341
 C       -10.3197917285        3.7094485465        0.8541916242
 C       -11.0596103454        3.0793046184       -0.2722909989
 O       -10.4522577338        2.2788162422       -0.9341735282
 C       -12.6156102842        3.1442290859       -0.3522724348
 C       -13.1075716909        4.2814337573        0.4888717302
 O       -12.5021461689        5.3344452339        0.3056766464
 C       -14.4024228241        4.2422566553        1.3138193516
 C       -14.5680749732        5.5939841940        2.2291617682
 C       -14.1326016928        5.3433723067        3.6110977471
 O       -13.2269927050        4.5048336091        3.6657710394
 C       -14.5211176377        6.1335960975        4.8824160897
 C       -13.7960384866        7.6292855350        4.9681961990
 O       -12.6658445544        7.7102401336        5.4997072292
 C       -14.4562740680        8.9753399633        4.6696799880
 C       -13.8384192961        9.7110383807        3.4446604389
 C       -14.6565784788       10.9819728707        2.9871899779
 O       -15.6281848127       10.5462725787        2.4565077966
 C       -14.2022235109       12.4390160322        3.1548417407
 C       -15.4282691245       13.1067393529        3.8582243231
 O       -16.3072863304       13.7188110965        3.2857206793
 C       -15.3751814136       13.0039341958        5.3943467994
 C       -12.8226155609       12.6507065147        4.0615193792
 C       -13.9588867720       13.0219737658        1.7376057620
 C       -15.9901811641        6.3882022514        5.1022619846
 C       -13.8700172008        5.3081020413        6.0540863794
 C       -13.0277124549        3.5421594408       -1.8818977892
 C       -13.1085554579        1.7103459283       -0.0494017878
 C        -8.2100083995        0.0796924224        1.5336790311
 C        -6.1968620395        0.7994758385        0.1487466005
 C        -6.9926175316       -5.2239859670       -2.9588773771
 C        -4.8439488213       -4.3986950975       -1.7099120888
 C        -6.2552002405        1.6439041442       -5.9187626188
 C        -3.7403920054        1.1639516696       -6.5147847456
 H        -2.5659643688        3.1978925347       -5.2622866901
 H        -2.9240707542        3.4997633344       -3.6735200713
 H        -3.2189991515        4.8233901255       -4.7832705108
 H        -4.0894103906       -1.3389026392       -5.2428688706
 H        -5.8364056378       -0.9844081301       -5.2005062382
 H        -4.7972305137       -1.3703451401       -2.3979843795
 H        -3.6941708696       -2.1138532895       -3.4583938588
 H        -9.3359640050       -3.6225285413       -1.7420606147
 H        -8.5141740590       -2.3266353649       -2.9008984350
 H        -9.0291440307       -1.7097759639        0.0241171151
 H       -10.0794001705       -1.3273053773       -1.1693374228
 H        -8.3066363470        3.3231074438        1.8264571677
 H        -9.4544112950        2.2883607047        2.0399805844
 H        -9.9649699725        4.7394911143        0.5099964152
 H       -11.0349072000        3.8143487401        1.6679509162
 H       -14.3991628758        3.2633989375        1.9766405236
 H       -15.3252843994        4.1821620623        0.6443965561
 H       -15.5556479784        5.9310170840        2.1228071887
 H       -13.8672882072        6.3047949354        1.7751952329
 H       -14.6016626878        9.4755527373        5.5848786569
 H       -15.4562237228        8.8645616826        4.4272752025
 H       -13.5977241823        8.9665831217        2.5597291730
 H       -12.8376719277       10.0124826598        3.8377944450
 H       -15.8255427545       13.8585888983        5.7917349938
 H       -14.3988928855       12.8296718418        5.8329034088
 H       -16.1071389027       12.1942123451        5.5837395149
 H       -12.7982412858       13.7329383160        4.3408652233
 H       -11.9225358945       12.4809496499        3.4373876814
 H       -12.7106857834       11.8330897711        4.9000333962
 H       -13.8648769122       14.1167060635        2.0161156490
 H       -14.9061314167       13.0085052627        1.0957236916
 H       -13.1196926644       12.6473865269        1.1351191154
 H       -16.4602809625        5.4089293238        5.3286274806
 H       -16.6209583831        6.7434670422        4.3077981498
 H       -16.3376281277        7.0201583989        5.8810901315
 H       -12.8149747007        5.0817279533        5.7715053401
 H       -14.2189633535        4.1501775568        6.1490940133
 H       -13.8698439026        5.5932653502        7.0381957788
 H       -12.3412255667        2.9139986741       -2.4567294157
 H       -12.8316536859        4.6031426910       -2.1560456656
 H       -13.9359269060        2.9794363694       -1.9627998258
 H       -13.1369562888        1.1948603397       -1.0121902621
 H       -14.1614727983        1.7272017197        0.2168153434
 H       -12.4344974721        1.1786260021        0.6739093550
 H        -7.8828349748       -0.9759095406        1.3834213820
 H        -9.2253541083        0.0363697557        1.6716993085
 H        -7.6193934752        0.6729357503        2.3160680726
 H        -5.6185475798       -0.1460997049        0.2098986774
 H        -5.8889273750        1.5072827440        0.9514279372
 H        -5.7903365717        1.3050446032       -0.8113228609
 H        -6.3428738878       -5.8543554541       -3.4820773521
 H        -7.9380444995       -4.9689064308       -3.4976283678
 H        -7.1145863753       -5.8656660895       -2.0577755171
 H        -4.7554527234       -3.7537322540       -0.6697728129
 H        -3.8696548429       -4.1692848924       -2.2815438904
 H        -4.7294536247       -5.4192776559       -1.4029198435
 H        -7.0302874003        1.5933915425       -5.1543013616
 H        -6.2088429689        0.7263306072       -6.5255819040
 H        -6.5184368372        2.4028231895       -6.6888415036
 H        -3.2852163036        1.9854812059       -7.0181923041
 H        -4.2723030023        0.6539607096       -7.2892922814
 H        -3.1147934675        0.4738387704       -6.0437942811
 Na       -6.7920474592        2.5511471150       -2.7265997169
