117

 C        -3.0698719878        3.4782165498       -4.7643749402
 C        -4.4625671558        2.9573377724       -4.9082104949
 O        -5.4749931957        3.5460381625       -4.5718869075
 C        -4.7177588296        1.4681551797       -5.4544893201
 C        -4.9097539890        0.4083444543       -4.3397991453
 O        -5.1120990463        0.7557460686       -3.1590464569
 C        -4.7674293448       -1.0921335251       -4.6784326389
 C        -4.8843828340       -2.0326436172       -3.4110704821
 C        -6.1936630956       -2.9086615688       -3.5152961382
 O        -6.9198536932       -2.9722901548       -4.4875019614
 C        -6.4797559048       -3.9253577990       -2.2477997139
 C        -7.1644014568       -3.0202833717       -1.1652527757
 O        -6.6639818080       -2.9384654785       -0.0451606991
 C        -8.5582890823       -2.4034004572       -1.5736552246
 C        -9.2200793548       -1.1961245012       -0.7980732944
 C        -8.3520878166       -0.0045191968       -1.0122972449
 O        -8.1453513698        0.4390047262       -2.1220155200
 C        -7.6964314468        0.7934754177        0.2820573734
 C        -8.1614009107        2.3109610949        0.3410616578
 O        -7.8073653927        3.0680945698       -0.5794843861
 C        -8.9987716191        2.8073249828        1.5441510562
 C       -10.3277877018        3.4747498544        1.0196353006
 C       -10.9505573260        2.9504584488       -0.3026947183
 O       -10.4252613108        2.2267647410       -1.1599789178
 C       -12.5178805309        3.2995976447       -0.3567996674
 C       -12.9828838520        4.5101272617        0.4898025219
 O       -12.4167284019        5.5545833721        0.3577186671
 C       -14.2684695475        4.3993714106        1.2873348837
 C       -14.5326255689        5.5529196008        2.2311181523
 C       -13.8110756577        5.4188654504        3.5562841357
 O       -12.9936457018        4.5581816436        3.6194257647
 C       -14.3453457725        6.1308244446        4.9236976787
 C       -13.7083733721        7.5353508422        4.8876228121
 O       -12.5650143564        7.6956608227        5.1727081598
 C       -14.7186427926        8.7528129530        4.3489556023
 C       -13.8615649014        9.7656023656        3.5237143090
 C       -14.6924524100       10.8985521183        3.1291232063
 O       -15.8179432121       10.7244359344        2.5807494022
 C       -14.1657183116       12.4684492232        3.1132111109
 C       -15.4105365027       13.3143653018        3.7578633958
 O       -15.9087346470       14.1034768142        3.0057335614
 C       -15.7517853627       13.4044014822        5.2709201269
 C       -12.8032319611       12.7364050801        3.8700174502
 C       -14.0770503447       12.7967604819        1.5521776602
 C       -15.9338716698        6.0406040535        4.7860606943
 C       -13.9472417838        5.4822691678        6.1966952222
 C       -13.1094777326        3.3622009657       -1.7822041015
 C       -13.1672430729        1.9551102557        0.2705573779
 C        -7.9551135906       -0.0424431538        1.5390244207
 C        -6.1799314868        0.7849492551        0.0713292487
 C        -7.4133328965       -5.0635196622       -2.7909691733
 C        -5.2203073191       -4.5294114279       -1.6847068489
 C        -6.0630388584        1.2493820996       -6.2466411103
 C        -3.5799279982        1.2375170866       -6.4572232425
 H        -2.2190739207        3.0195056944       -5.3119819520
 H        -2.7827201275        3.3928241876       -3.6250574791
 H        -3.1679782748        4.5107589807       -5.0027452984
 H        -3.7727619562       -1.0789279346       -5.1543104843
 H        -5.5176904718       -1.4578412511       -5.3825624179
 H        -4.7708659259       -1.4757741651       -2.4837576386
 H        -4.1266155067       -2.7162642004       -3.3811294827
 H        -9.1564864085       -3.1776398096       -1.3285399673
 H        -8.5014521692       -2.2954632863       -2.6700600698
 H        -9.4594797521       -1.3935814840        0.2521890869
 H       -10.2552668026       -1.1313757243       -1.1258084065
 H        -8.2860212457        3.5173585986        2.1285319110
 H        -9.0906063228        2.1230522926        2.4287669849
 H        -9.8795089592        4.3594645752        0.7275988316
 H       -11.1742501820        3.6371719253        1.7443030289
 H       -14.4318595711        3.5026010825        1.7017952192
 H       -15.0824587831        4.5879976903        0.5815108302
 H       -15.6577250668        5.4638738486        2.2723620401
 H       -14.3042093611        6.4821988484        1.6750624233
 H       -15.0943774519        9.1585482894        5.3341218655
 H       -15.7552776891        8.7541051458        3.8353025823
 H       -13.6473043924        9.4611920236        2.5736625019
 H       -12.9373980737        9.8448136814        4.0037984965
 H       -14.8509917592       13.9568597214        5.6685027235
 H       -15.7755576602       12.4673791113        5.7947708066
 H       -16.6476876513       14.0126441167        5.3783148773
 H       -12.9592692336       13.4669048113        4.6593126385
 H       -12.0295145558       13.1093559079        3.1949740091
 H       -12.3810350242       11.8700750410        4.2179675549
 H       -13.1130428980       13.2430151319        1.2123412942
 H       -14.8569413043       13.4952106095        1.2229643903
 H       -14.3273060122       11.8466043204        0.9955552615
 H       -16.4017456555        5.1351164661        5.0021986306
 H       -16.3425565144        6.3674103584        3.8081155354
 H       -16.4616142224        6.6779660018        5.5537252851
 H       -12.9734996556        5.7024362975        6.6015508752
 H       -14.0261275847        4.4994106697        6.2794026694
 H       -14.6823144489        5.8340561170        6.9887089221
 H       -12.6314538200        2.5966567994       -2.4963490135
 H       -12.7835842612        4.3396620666       -2.0194140059
 H       -14.1840176509        3.0481592420       -1.7581279439
 H       -12.8355325833        1.1155808832       -0.3030633521
 H       -14.2382047471        1.9813037526        0.1142274894
 H       -12.8650703083        1.8441373767        1.2648692818
 H        -7.4010346824       -0.8922119739        1.4006622510
 H        -9.0844177779       -0.1479210492        1.8450304127
 H        -7.6198814935        0.5793141567        2.3002905121
 H        -5.8700278342       -0.2205905523        0.2963706713
 H        -5.7143076191        1.5884470589        0.6163674144
 H        -5.7885838430        0.7928430133       -0.8950994031
 H        -6.8579400706       -5.7115873027       -3.5551534383
 H        -8.2295745147       -4.5217306308       -3.2309455331
 H        -7.7855823235       -5.7160523061       -1.9788777807
 H        -5.2041060609       -4.5413148162       -0.6651413852
 H        -4.2672112177       -4.2141181946       -1.9591335429
 H        -5.2669406558       -5.6304714788       -1.9243136468
 H        -6.8340012308        1.4924834445       -5.5166575701
 H        -6.2351251929        0.2680551054       -6.7403948296
 H        -6.1053956749        1.9603714135       -7.1251322880
 H        -3.6910768432        2.0176348043       -7.2872012406
 H        -3.5638598005        0.1598828497       -6.8393293112
 H        -2.6467507117        1.3104631091       -5.8362752679
 Na       -6.8975366745        2.5300320641       -2.7219750301
