117

 C        -3.1897843791        3.4466396631       -4.7885593887
 C        -4.5313157661        2.6370182885       -4.9366961768
 O        -5.5213865246        3.1224696528       -4.3765757023
 C        -4.6779266584        1.2537005245       -5.6146379800
 C        -4.8741368853        0.2142383219       -4.4369351164
 O        -5.3039286686        0.6149114540       -3.3923681473
 C        -4.5469346924       -1.2936883495       -4.5762682090
 C        -4.8792179851       -2.1477726796       -3.3639888510
 C        -6.2290984878       -2.9834749008       -3.4031307760
 O        -6.9668292855       -2.8135672994       -4.3188425695
 C        -6.7012156671       -3.8801270025       -2.2050777882
 C        -7.2614170519       -2.8260782794       -1.0815840648
 O        -6.8407625468       -2.5586460846        0.0209281892
 C        -8.6648670826       -2.2583924102       -1.5731500578
 C        -9.0987044158       -1.0618662287       -0.6383767425
 C        -8.2242541766        0.1382102415       -0.8189694013
 O        -8.2322515901        0.5811986835       -1.9831092837
 C        -7.4343994773        0.7838104675        0.3411489274
 C        -8.1134187438        2.2629350048        0.2820396757
 O        -7.6954267971        3.0131286133       -0.6041699472
 C        -9.1464856988        2.5466141958        1.4376584271
 C       -10.2606244592        3.5829969366        1.0500732037
 C       -11.0972207197        2.9435313407       -0.1273488733
 O       -10.4566862935        2.3066012908       -0.9173670660
 C       -12.6102167856        3.2079133260       -0.2301988515
 C       -12.9912684326        4.6119387259        0.4089377734
 O       -12.1977012811        5.5511561759        0.3773511618
 C       -14.2886872293        4.6877509540        1.1102115635
 C       -14.3453472023        5.6764839442        2.3081823076
 C       -13.6489608014        5.3517608745        3.6242145196
 O       -12.6929714686        4.6004699839        3.6711369665
 C       -14.4301324499        5.9931637679        4.8583833451
 C       -13.8524035549        7.5114422278        4.5197264265
 O       -12.6591329120        7.6637804592        4.8218177706
 C       -14.7147387692        8.6096211157        3.9696470712
 C       -13.9355600772        9.8924715180        3.5985986659
 C       -14.8751668525       11.1423027948        3.2296554831
 O       -15.9866177748       10.8015685447        2.9948119361
 C       -14.2953943623       12.5167781026        2.9717434680
 C       -15.3593765303       13.6410355050        3.4134215682
 O       -15.6511360164       14.5731328394        2.7055728441
 C       -15.7500124081       13.4600690517        4.9372115549
 C       -12.9736379203       12.8198348547        3.8078770338
 C       -13.9896400715       12.6600684319        1.4073735411
 C       -15.9459153372        5.9336475512        4.8777456087
 C       -13.8350070643        5.4791387328        6.2129149699
 C       -12.8769529960        3.2026148760       -1.7204442274
 C       -13.1827719778        1.9581129376        0.4903597577
 C        -7.7026100915        0.0708522711        1.6949827706
 C        -5.9862052818        0.6742320330       -0.0063934001
 C        -7.8895277640       -4.7616496476       -2.5713322219
 C        -5.5161148346       -4.7052233927       -1.5957580388
 C        -5.8369209202        1.4317047881       -6.5306294698
 C        -3.4782032794        0.7072910832       -6.4524625663
 H        -2.4533008186        3.1381400956       -5.5482215906
 H        -2.7476271960        3.1853137436       -3.9016703611
 H        -3.2757911210        4.5406837723       -4.9042785585
 H        -3.5778782573       -1.3537929474       -5.0936420068
 H        -5.3680625557       -1.6981004707       -5.2095957730
 H        -4.9901397368       -1.4511964250       -2.4826060763
 H        -4.0238608444       -2.8732736469       -3.0457151822
 H        -9.4514355805       -3.1104900570       -1.3265294109
 H        -8.5985108784       -2.1486925105       -2.6606475070
 H        -9.3693900734       -1.4900119796        0.3758604211
 H       -10.1539871166       -0.6966358801       -0.8911735738
 H        -8.7671974022        2.8987315160        2.3605740575
 H        -9.5701057381        1.6314475757        1.8051684094
 H        -9.5423450176        4.4612741311        0.7900179422
 H       -10.7323430855        3.8100292330        1.9745075278
 H       -14.7512970194        3.6192233926        1.4802527485
 H       -15.0126283178        4.9981766321        0.3460962909
 H       -15.3810164455        5.8365531310        2.5036139896
 H       -13.9563375934        6.6460493854        2.0065236587
 H       -15.5488072159        8.8579425471        4.6048225251
 H       -15.1995455172        8.2165115975        3.1192866560
 H       -12.9726167993        9.9043292170        2.9415993930
 H       -13.5320334056        9.9974018610        4.6739792856
 H       -15.0582093634       12.6927062460        5.3000715039
 H       -16.7841244231       13.0469923603        5.1443636264
 H       -15.6066737530       14.3973599087        5.4625855130
 H       -13.2545702030       13.1688513306        4.7749269686
 H       -12.2946660285       13.4663299904        3.2567498847
 H       -12.3876869914       11.8931257008        4.0054942624
 H       -13.1171119865       12.1971424278        1.1266750472
 H       -13.9181088157       13.6421514739        1.0497239185
 H       -14.8069042355       12.1604894145        0.9597781319
 H       -16.5014380921        5.0062449275        4.4392317169
 H       -16.4342959292        6.7455769851        4.3146556204
 H       -16.3668484037        5.9161757762        5.8829134099
 H       -12.8031991964        5.9000536102        6.3434009582
 H       -13.7474920718        4.3671391242        6.4157368817
 H       -14.3546993681        5.8004418309        7.1127704233
 H       -12.9607138916        2.2335463062       -2.0758282080
 H       -12.0069371640        3.8563813569       -2.0409537073
 H       -13.7886137925        3.6872811534       -1.9289679555
 H       -12.6660750215        1.0187311964        0.1792254266
 H       -14.2627502720        1.8247852346        0.4320735538
 H       -12.8341468134        2.0894645909        1.5491921704
 H        -7.2238540825       -0.9646391734        1.4683528176
 H        -8.7283198978        0.1279578565        1.8873526357
 H        -7.3023764058        0.6293051694        2.6030622865
 H        -5.7785107690       -0.3044634262       -0.4576762636
 H        -5.4276024392        1.0975735953        0.8439201794
 H        -5.6707619938        1.2410913222       -0.9147199708
 H        -7.4519732299       -5.4103568927       -3.2864076102
 H        -8.7319183405       -4.2460023118       -3.0804247128
 H        -8.2968149402       -5.2249018089       -1.6532223939
 H        -5.7424869796       -5.4244330678       -0.7701038278
 H        -4.8374518258       -3.9132201850       -1.1957942865
 H        -5.0148922302       -5.3088785518       -2.4255956264
 H        -6.6308018080        1.7832194007       -5.8658624466
 H        -6.1488319690        0.5139379779       -6.9076716253
 H        -5.6359323020        2.0071942353       -7.3411730632
 H        -3.3464822227        1.4460726581       -7.1897122920
 H        -3.7679022624       -0.2223323834       -6.8473120374
 H        -2.5521094873        0.5334627268       -5.8956645770
 Na       -6.9330403955        2.3350385376       -2.6896213230
