117

 C        -3.2345465483        3.2152292596       -5.0403908146
 C        -4.5087477075        2.3941112694       -4.9162274293
 O        -5.3719713077        2.8770984821       -4.1631827145
 C        -4.6529854713        0.9614582260       -5.5510463444
 C        -5.0001164175       -0.0117423103       -4.3587783361
 O        -5.7066903243        0.2696672285       -3.4383103527
 C        -4.6319639140       -1.5132064347       -4.5504453238
 C        -4.9028712322       -2.2619392257       -3.1937155619
 C        -6.3600624303       -2.8712040221       -3.3214990555
 O        -7.0734538307       -2.6512731734       -4.3032290027
 C        -6.8941238352       -3.7882892246       -2.1301931059
 C        -7.5423817560       -2.7131073288       -1.1398517182
 O        -6.8035738618       -2.2299554422       -0.3144220292
 C        -8.9739317553       -2.1461522906       -1.4205185194
 C        -9.1878888857       -1.0340944901       -0.5250859237
 C        -8.2065984078        0.1058597287       -0.7002584167
 O        -8.2101203760        0.4390092453       -1.8654883943
 C        -7.4136725296        0.8192320384        0.3785145884
 C        -7.9737576810        2.2857357995        0.4321690933
 O        -7.5885014225        3.0820327785       -0.3987466312
 C        -8.8519475745        2.6460757521        1.5785824193
 C        -9.9929306661        3.6666266134        0.9805527915
 C       -10.8492300530        2.9425453347       -0.0094201792
 O       -10.4136194836        2.0420963792       -0.7594563966
 C       -12.5555324536        3.1311801864       -0.0791192175
 C       -12.9495667548        4.5758630646        0.3781937331
 O       -12.1440893846        5.4682853444        0.3757879023
 C       -14.3423929153        4.8435885272        1.0115751658
 C       -14.1735573158        5.9091241381        2.0947876362
 C       -13.7646231849        5.4060856227        3.5032741947
 O       -12.9292182209        4.5165861288        3.5654901467
 C       -14.3397693287        6.0937879707        4.7772470787
 C       -13.7610083938        7.6493202997        4.4681122832
 O       -12.6046178075        7.9153588230        4.6272346721
 C       -14.6913288245        8.5906330535        3.6789697588
 C       -14.1367480325       10.0883292031        3.9767411488
 C       -14.9677548596       11.1889502781        3.3335424052
 O       -16.2015297551       11.0902778671        3.4109965573
 C       -14.2598793910       12.5436536596        2.8615982379
 C       -15.2792032026       13.7295635766        3.2326214920
 O       -15.2933704827       14.6553388146        2.4733666234
 C       -16.1478936569       13.6874853869        4.5991027364
 C       -12.8860611051       12.7810420358        3.5547611477
 C       -14.0568522315       12.5045720563        1.3082841808
 C       -15.8926342306        5.7636740745        4.9072930229
 C       -13.5274296548        5.5324273659        6.0227475424
 C       -13.0109184491        3.2322949590       -1.6632297868
 C       -13.2363024891        1.8931637773        0.5776592756
 C        -7.3320871808        0.0405950168        1.7610929945
 C        -5.8605768193        0.9708213152       -0.0808366648
 C        -7.9524136585       -4.8542823196       -2.8090404827
 C        -5.7943862729       -4.5041627037       -1.2828123543
 C        -5.8397616161        1.0909373395       -6.5874970230
 C        -3.3370185127        0.6051564846       -6.3472572496
 H        -2.8026478928        3.3783515806       -5.9806174953
 H        -2.4765522925        2.6507699373       -4.4149255973
 H        -3.3816855386        4.2534940879       -4.6860786626
 H        -3.5425925688       -1.4932254824       -4.6845415242
 H        -5.1128087786       -1.9625686889       -5.4668620813
 H        -4.7449882841       -1.7075619068       -2.2719433071
 H        -4.2204115666       -3.0520117779       -3.1744523416
 H        -9.6947426254       -2.8861821710       -1.4485465487
 H        -8.8566804667       -1.7502955198       -2.4570844641
 H        -9.2428499476       -1.3441883332        0.4798254225
 H       -10.1425855780       -0.5870178069       -0.7100784640
 H        -8.3798762362        3.1995249294        2.4571350658
 H        -9.4143004280        1.8153844909        2.0972638390
 H        -9.5620536997        4.3463591105        0.3576222331
 H       -10.4815951293        4.1375230313        1.8927278501
 H       -14.8712563636        4.0530308899        1.3683630954
 H       -14.9839529790        5.1539859661        0.1438109437
 H       -15.1185502721        6.5033563820        2.1562326873
 H       -13.4023464928        6.6290722635        1.7751369377
 H       -15.5907886388        8.4526006575        4.3061005137
 H       -14.9464283715        8.5616892342        2.5508083201
 H       -13.1637299294       10.1964860651        3.5769547542
 H       -14.0132532006       10.2951362449        5.0015877523
 H       -16.9077702542       12.9743865218        4.5275308853
 H       -16.5366308661       14.6704378383        4.7783626187
 H       -15.4648973762       13.5342096115        5.4479234812
 H       -12.7877265858       12.0952257503        4.4670651598
 H       -12.7215392534       13.8543578836        3.7769510071
 H       -12.0211948314       12.4805706699        2.8980977442
 H       -13.8812585436       11.4333065029        0.8573688474
 H       -12.9988803110       12.9589952307        1.1449095138
 H       -14.8117234080       13.0489132844        0.6904471513
 H       -16.0271141051        4.7366931181        4.8662603557
 H       -16.5114430525        6.1545158482        4.1001868705
 H       -16.3125620660        6.0203129649        5.9203551338
 H       -12.4811092787        5.5008699641        5.9221501874
 H       -13.9071934425        4.4784488296        6.2735629721
 H       -13.6688612145        6.0357424185        6.9449175824
 H       -12.8371471596        2.1418864377       -1.9588695729
 H       -12.5745267396        4.0850459429       -2.1128780064
 H       -14.1556027313        3.4224964683       -1.7034739422
 H       -12.9365750352        1.0332103681       -0.0040222257
 H       -14.3627613168        1.9828285865        0.6394176609
 H       -12.8843231498        1.7012180943        1.6064462891
 H        -6.6718816325       -0.7007160696        1.5405637721
 H        -8.2795397053       -0.1328793282        2.2152639848
 H        -6.8861733362        0.7064340819        2.4302960711
 H        -5.6625229493        0.2841983752       -0.8524245141
 H        -5.2387388784        1.0735751603        0.7838604711
 H        -5.6649332656        1.8072117376       -0.7237782252
 H        -7.4422012608       -5.6916715292       -3.2910826869
 H        -8.4120670544       -4.3600724146       -3.6488489827
 H        -8.7987896039       -4.9472724731       -2.1470270273
 H        -6.1227220490       -5.6061402173       -1.2685146307
 H        -5.7894280428       -4.1577042968       -0.2195048028
 H        -4.8488052808       -4.5330047950       -1.6862157698
 H        -6.8070589553        1.4006407466       -6.2261133964
 H        -5.9609831052        0.1388967184       -7.2126337074
 H        -5.2759195061        1.8013341365       -7.3264550226
 H        -2.8812684599        1.5493270619       -6.7236841754
 H        -3.6099047442       -0.2115182588       -7.0301977449
 H        -2.5981986716        0.2427611355       -5.6755157612
 Na       -6.8802402753        2.2273110508       -2.5852540901
