117

 C        -3.2588417373        3.0616297713       -5.3045667374
 C        -4.4470489204        2.2559458874       -4.8335226575
 O        -5.2271827900        2.8321411336       -4.0687249332
 C        -4.5347500178        0.7333670455       -5.3661788286
 C        -5.1232726259       -0.3252053691       -4.3681281482
 O        -6.0409502744       -0.0085053293       -3.5432171915
 C        -4.4412816573       -1.6622440282       -4.4302893305
 C        -4.9522665264       -2.5724934146       -3.3163848789
 C        -6.4066584755       -2.8560709437       -3.3125592147
 O        -7.1374328639       -2.5290947490       -4.1953281560
 C        -7.0460460533       -3.7549924554       -2.1320642245
 C        -7.7242617024       -2.6224072179       -1.2995915472
 O        -6.9273127948       -1.8313124523       -0.7588499897
 C        -9.2332092445       -2.1055814270       -1.2185472144
 C        -9.2523736437       -0.9083473463       -0.2464290771
 C        -8.1917346772        0.0894173882       -0.6566647711
 O        -8.0545791615        0.3901032728       -1.8447508005
 C        -7.3059071921        0.9524256551        0.4331821549
 C        -7.8559908731        2.4378732679        0.4763495579
 O        -7.5616714106        3.2104458713       -0.4585359163
 C        -8.7821663099        2.9269303228        1.5495053401
 C       -10.0155543543        3.5662255387        1.0488647459
 C       -10.8663441239        2.7142280926        0.0020688350
 O       -10.5002808574        1.6942337166       -0.5170627341
 C       -12.3920880826        3.0755664629       -0.0550984816
 C       -12.7155773792        4.5642804127        0.4457854508
 O       -11.8792684593        5.4463629382        0.3332481354
 C       -14.1743981412        4.8567268485        0.8273140793
 C       -14.3136093002        5.8702715197        1.9097851733
 C       -13.7391896287        5.2952083548        3.2226668673
 O       -13.1811020672        4.2468620250        3.1912123323
 C       -14.0506761401        6.1828353430        4.5491561276
 C       -13.6571256991        7.6805426535        4.2793360736
 O       -12.6237179926        8.1039046931        4.7504143797
 C       -14.8461154226        8.7855356685        3.9297890897
 C       -14.2191046726       10.1694389993        4.2058798641
 C       -15.0944921179       11.3299695209        3.6036855409
 O       -16.2946290632       11.2393453456        3.4723935776
 C       -14.3675864290       12.5750461638        2.9171036765
 C       -15.2244075338       13.9244666692        3.0548016818
 O       -14.9632125607       14.7914471072        2.2230165457
 C       -16.2152392495       14.1239946861        4.1340816031
 C       -12.9540258437       12.8226130705        3.5637418876
 C       -14.3619120841       12.1196955638        1.3229888420
 C       -15.6206584939        6.1249451581        4.7998444246
 C       -13.2994105945        5.7664904157        5.8315926643
 C       -12.8265824054        3.0998027504       -1.5762586483
 C       -13.1674773310        2.0187468082        0.8537005027
 C        -7.2575361832        0.1868626906        1.8113356717
 C        -5.8076992304        0.8903066317       -0.1490563958
 C        -8.0707431763       -4.7281620474       -2.7129660280
 C        -6.0660010912       -4.5858437556       -1.2238992315
 C        -5.8323098334        0.7391873118       -6.4164362448
 C        -3.2689929219        0.2965213539       -6.0822651049
 H        -3.5127855184        3.7774316845       -6.1580407581
 H        -2.2991879315        2.5942628151       -5.5177432819
 H        -3.1837227959        3.8333801981       -4.5884271962
 H        -3.3697654149       -1.6600983435       -4.2835094525
 H        -4.7475731149       -1.8474293769       -5.4599088465
 H        -4.6930931222       -2.1145349443       -2.3281859962
 H        -4.3038809968       -3.4878464601       -3.4065167648
 H        -9.7369912295       -3.0226009335       -0.7727397205
 H        -9.7531500292       -1.9721762370       -2.1852847163
 H        -8.9757888780       -1.1580620071        0.8548442581
 H       -10.2853268045       -0.3841541896       -0.2025670049
 H        -8.1633971888        3.6132897303        2.1467535717
 H        -9.1935301819        2.1775626539        2.2402816496
 H        -9.8827576075        4.6546028028        0.6183905710
 H       -10.6472750674        3.5374777133        1.9277914875
 H       -14.5976132949        3.8410426162        1.1175468939
 H       -14.7878133790        5.0461279937       -0.0714045113
 H       -15.3251393701        6.2258506619        2.0528023952
 H       -13.7829909677        6.7639692768        1.5390654652
 H       -15.8432142902        8.7274127505        4.3839054255
 H       -14.9260219986        8.7938201713        2.8597219920
 H       -13.1276762040       10.1706139204        4.0042173977
 H       -14.2738972847       10.4747035297        5.3026097648
 H       -16.9299936454       14.9146690860        3.6946147325
 H       -15.7793544244       14.4541596844        5.0914918626
 H       -16.7171939999       13.1863319872        4.3209253377
 H       -12.5817977568       12.0880476217        4.1992306742
 H       -13.0616543713       13.7607296452        4.1044630504
 H       -12.2024564486       12.8809946449        2.8345832249
 H       -14.9270870760       11.2403659924        1.2415362240
 H       -13.4437560823       11.9171949480        0.8733244487
 H       -14.8754992143       12.8879413352        0.7135204843
 H       -16.0409549356        5.1511534777        5.2856960947
 H       -16.0969556052        6.1500986461        3.7949364804
 H       -15.9576977772        6.9668903067        5.3761470360
 H       -12.1970064205        6.0132371433        5.7473844715
 H       -13.4236732661        4.7789892609        6.0635297099
 H       -13.5887817918        6.3817295076        6.7820088212
 H       -12.1226593101        2.4811099970       -2.0401068582
 H       -13.0821333578        4.1239440150       -1.9213411918
 H       -13.7854327935        2.6731359550       -1.6054992950
 H       -12.7323241456        1.0509628712        0.5830065101
 H       -14.1684425695        1.9975731228        0.5371403199
 H       -13.2313156527        2.1201143143        1.9059330132
 H        -7.0731203769       -0.8770478438        1.5098701730
 H        -8.2675935751        0.4546202346        2.3517890698
 H        -6.3774907176        0.5507387537        2.4056275001
 H        -5.6639502302        0.0834464474       -0.9174660165
 H        -5.1658296949        0.7213839015        0.7331100866
 H        -5.4410755861        1.7086525323       -0.7371475150
 H        -7.4827167572       -5.4031867082       -3.3481548982
 H        -8.8893620223       -4.4162657831       -3.3412126493
 H        -8.5248772523       -5.1286187255       -1.8408638253
 H        -6.1131090676       -5.5654377766       -1.4815124325
 H        -6.4601851543       -4.4428466543       -0.2494972833
 H        -4.9930526283       -4.1488676571       -1.3055225724
 H        -6.7257634161        0.9615557781       -5.7676628930
 H        -5.9811511322       -0.2511490075       -6.7828271419
 H        -5.7348494308        1.4128725272       -7.2207904210
 H        -3.2831876195        0.9183259620       -6.9568962704
 H        -3.4061868761       -0.7689226183       -6.3172511240
 H        -2.2840862313        0.5958846523       -5.5896974545
 Na       -6.8954713602        2.1732935424       -2.4217641780
