117

 C        -5.5850845066       11.4580872353        0.1432326761
 C        -6.4450926238       11.0165737769        1.3436068607
 O        -7.6377757596       11.1081369697        1.3134794816
 C        -5.6309418953       10.3572264623        2.6240537612
 C        -5.2557788765        8.8599835398        2.2821343733
 O        -4.0690965914        8.5193944033        2.3635066787
 C        -6.4368440898        7.8408454677        1.9974571088
 C        -5.9548570397        6.4722004110        1.5287971484
 C        -6.9029367153        5.5219493915        0.7412544158
 O        -8.0985055342        5.4116519181        0.9770835090
 C        -6.3089823407        4.7222522985       -0.5520802957
 C        -5.9804349235        3.2140089898       -0.0881152233
 O        -4.8512735621        2.7474764123        0.0061960569
 C        -7.1469738133        2.2306531300        0.3281336627
 C        -6.7076104724        0.8026748683        0.8130466313
 C        -7.8911399278       -0.0649099783        1.3721340709
 O        -8.9279898937       -0.1408868735        0.7360783478
 C        -7.8422000784       -0.7259439080        2.8051351031
 C        -8.7975640918        0.2838453719        3.6025820720
 O        -8.2759793485        1.2848404461        4.0624695089
 C       -10.3634395865        0.0535064713        3.6271641059
 C       -11.1711904928        1.3403394312        3.7744276684
 C       -11.2182130636        2.1271550955        2.3878465389
 O       -10.2685793667        2.0588066158        1.6099217254
 C       -12.3507598243        3.1623928008        1.9917518683
 C       -13.1987454652        2.5779663589        0.8458307227
 O       -12.8185574584        1.7353484341        0.0951118243
 C       -14.6308879319        3.1954895118        0.7019314400
 C       -15.1817366776        3.0765474708       -0.7035233111
 C       -14.9037682984        4.4042100471       -1.5669581853
 O       -14.6041240370        5.4541443457       -1.1458959217
 C       -15.1765123977        4.1642758907       -3.0915653948
 C       -13.9437485959        3.5896109321       -3.7498215317
 O       -13.9134144467        2.4064234743       -4.0592255788
 C       -12.5627819069        4.3098455877       -3.9445713856
 C       -11.4616231361        3.5223912913       -4.5756513904
 C       -10.9889247047        2.3224738840       -3.5790219227
 O       -10.9253638940        2.6819993945       -2.4005451944
 C       -10.6236004704        0.9114255613       -3.9161288740
 C       -11.6821139295       -0.0516361085       -3.3628987480
 O       -11.9609762121       -0.1712618452       -2.1609838831
 C       -12.3890051369       -1.1822211856       -4.2446922418
 C       -10.4104579185        0.7845209880       -5.4843230500
 C        -9.2828544879        0.5249490448       -3.2040089773
 C       -16.4523385823        3.2613216221       -3.3936242902
 C       -15.5305019111        5.5835560530       -3.5595549023
 C       -13.1303393399        3.7129289282        3.2198451402
 C       -11.6245475353        4.3613077251        1.2504604797
 C        -8.4321367688       -2.1757635746        2.7976581720
 C        -6.3374537332       -0.7843894266        3.3320807425
 C        -7.4914521928        4.5370019025       -1.5662193873
 C        -5.2064737161        5.4404966857       -1.2624603788
 C        -4.3237856527       11.0612921201        2.9069813281
 C        -6.6846326478       10.5450952791        3.8123203380
 H        -5.0546831671       12.4671143565        0.3088962917
 H        -6.0971709184       11.5824760098       -0.8007033462
 H        -4.8593490893       10.6225127290       -0.0382711126
 H        -7.0953272247        8.3371106394        1.3702349242
 H        -6.9921882745        7.6775094422        2.8999499667
 H        -5.5567286203        5.8890079586        2.4295493828
 H        -5.0406173032        6.4584609320        0.9019661694
 H        -7.9923949481        2.0517787493       -0.3698892133
 H        -7.6749950070        2.8034077495        1.0631994612
 H        -5.8995135590        0.8047781999        1.4891516428
 H        -6.3186087104        0.2073875728       -0.0625152377
 H       -10.5479084515       -0.6144640814        4.5120518041
 H       -10.7743559346       -0.5886831523        2.8061374133
 H       -10.6797550173        1.9438793467        4.5985995594
 H       -12.0921273801        1.0965420663        4.2059229559
 H       -14.5143925731        4.2792648843        0.9483687685
 H       -15.1926702548        2.8407428068        1.5923551768
 H       -16.2327799345        2.8393208301       -0.7212610033
 H       -14.5230920676        2.3140963522       -1.1866860866
 H       -12.1803148452        4.7094853140       -2.9912129732
 H       -12.8025552565        5.1229971675       -4.6494610830
 H       -10.5473942234        4.1108555042       -4.6090788384
 H       -11.7571204734        3.1667130610       -5.5224502040
 H       -13.3637872482       -1.2970729840       -3.8053634364
 H       -11.7272364630       -2.0914278080       -4.2945773101
 H       -12.4677221584       -0.8819327673       -5.2725845887
 H        -9.5569687143        1.2665008180       -5.8279081959
 H       -11.1454372420        1.3938008319       -6.0408777215
 H       -10.4155614818       -0.2735139774       -5.7647825756
 H        -9.5590035316        0.3042655880       -2.0895433476
 H        -8.6069357012        1.3771017631       -3.1751481818
 H        -8.7991757944       -0.2565327444       -3.7070073102
 H       -16.1346956375        2.2404330624       -3.0568997325
 H       -16.5861620124        3.1557278031       -4.4685871743
 H       -17.4009857907        3.6425677084       -2.9038602684
 H       -15.8026025264        5.6432105949       -4.6008954200
 H       -14.7511522089        6.2910838132       -3.2802951255
 H       -16.4235520970        5.8505760688       -3.0189340555
 H       -12.4309310198        3.9774453977        4.0075061484
 H       -13.9269088784        3.0714545569        3.5149224828
 H       -13.6907281161        4.6285931917        2.9472619589
 H       -11.2078955873        5.0884868166        1.9711573723
 H       -12.4554490493        4.9209347285        0.7413205001
 H       -10.9021636129        4.0441130751        0.5011260087
 H        -8.3000544828       -2.5860577432        3.8039555671
 H        -7.7820027292       -2.8738764929        2.1766149898
 H        -9.3952556862       -2.2099188400        2.4024322865
 H        -5.7632040426       -1.4540169789        2.6969658570
 H        -6.2689223609       -1.1452821448        4.3744825627
 H        -5.8580777235        0.1199885032        3.2791011476
 H        -8.4050775935        4.1199131270       -1.0665594869
 H        -7.1807751343        3.8326637296       -2.3313123820
 H        -7.8447076121        5.5367612070       -1.9995687289
 H        -5.4906307211        6.4756613906       -1.4044709335
 H        -4.9639056908        5.0123884340       -2.2017175489
 H        -4.2612979894        5.4512115550       -0.7197162879
 H        -3.5367475839       10.7141857259        2.2042324140
 H        -3.9595564224       10.9862647885        3.9050547086
 H        -4.3212838897       12.1453731994        2.6192028186
 H        -7.7243192132       10.4795449562        3.4648079411
 H        -6.6798604283       11.5449798026        4.3164433949
 H        -6.5313473920        9.7846558991        4.5758724751
 Na      -10.6464825201        1.1125369140       -0.5228734877
