117

 C        -3.5019269090        2.9705478855       -5.6149172626
 C        -4.3632365782        1.9859723434       -4.7245001493
 O        -4.9389105052        2.4774372528       -3.8423753636
 C        -4.6092538832        0.5187076979       -5.3121832894
 C        -4.9651979150       -0.5471729222       -4.2569830306
 O        -5.6694313922       -0.1307914753       -3.2605885130
 C        -4.3470022572       -1.8732107038       -4.1453238296
 C        -5.0914638156       -2.8096918628       -3.1076285185
 C        -6.5876325382       -3.0590806911       -3.4189846035
 O        -7.2026893001       -2.7809975843       -4.3998254551
 C        -7.3482380420       -3.7033534050       -2.1587811449
 C        -7.5700936925       -2.5254559793       -1.2167041087
 O        -6.6895522699       -1.8441030996       -0.7453422042
 C        -9.0417662135       -2.1135432896       -1.0070397667
 C        -9.1403099818       -0.8842590370       -0.0236162928
 C        -8.2763871660        0.2043910115       -0.5629093459
 O        -8.4721048582        0.6148297259       -1.6844213814
 C        -7.3278897531        0.9262914685        0.4768000216
 C        -7.8677271586        2.4044123816        0.3850022472
 O        -7.6653640367        3.0167891708       -0.7172274852
 C        -8.5826929897        3.0567945883        1.5939979394
 C        -9.8905063469        3.7079211276        1.1749348138
 C       -10.7818531651        2.7756868576        0.4569259822
 O       -10.2163583175        1.8232628834       -0.0213344498
 C       -12.3177532984        3.0779088250        0.0704382739
 C       -12.7034898080        4.5532321528        0.2887620570
 O       -11.7827443252        5.3654771024        0.3258694313
 C       -14.1890006630        5.0572821689        0.5641921383
 C       -14.3082337980        6.1221582169        1.6360806495
 C       -13.8593054450        5.5256266349        3.0236851815
 O       -13.4254495998        4.4138315307        2.8872995161
 C       -13.9787502520        6.2509151440        4.4217436213
 C       -13.6678020275        7.8019832980        4.2636078346
 O       -12.4566613496        8.2239083126        4.3934720569
 C       -14.8433570936        8.9272299047        4.1405958181
 C       -14.2802240719       10.4322966716        4.3704286857
 C       -15.2176139797       11.5235169254        3.6900824632
 O       -16.3936730509       11.4264996983        3.8367789719
 C       -14.4989461998       12.6369189021        2.8646884519
 C       -15.2322230680       14.0467976470        2.6388725111
 O       -14.7879899566       14.7733324147        1.7688114387
 C       -16.3147141715       14.5919558350        3.6535605918
 C       -13.1243254320       13.0448293512        3.4828399706
 C       -14.2953067755       11.9582349693        1.3904763228
 C       -15.4653742945        6.0786448487        4.9078700903
 C       -13.0329416223        5.7888441084        5.5868575443
 C       -12.5449512301        2.4550026391       -1.4405041570
 C       -13.2564833147        2.1630049818        0.9520851344
 C        -7.2629063020        0.3341622486        1.9319140129
 C        -5.8496538180        0.9242559113       -0.0833773289
 C        -8.7170675911       -4.3058005542       -2.5477256006
 C        -6.4424820432       -4.7574100984       -1.2993211338
 C        -5.7632464760        0.7301785710       -6.4044895481
 C        -3.4232988483       -0.0303203987       -6.1820854621
 H        -3.7469811442        3.1945022659       -6.7029231659
 H        -2.5258382804        2.5383770243       -5.6130581322
 H        -3.3107584878        3.9649932157       -5.2062190176
 H        -3.2779002159       -1.6218252353       -3.8928012047
 H        -4.5465878751       -2.2774164822       -5.1260202869
 H        -5.1696602325       -2.4559023518       -2.1489289620
 H        -4.5584845399       -3.7775902179       -3.1863091396
 H        -9.4951591445       -2.8905743505       -0.4179460589
 H        -9.5027987582       -2.1985877284       -1.8616215610
 H        -8.8282551813       -1.1366715899        1.0171654373
 H       -10.1323662911       -0.5142212778       -0.1983174182
 H        -7.9961728450        3.8819170373        2.0770979668
 H        -8.8768383072        2.1157305248        2.1675823283
 H        -9.4158392714        4.4438213285        0.4702919421
 H       -10.4891429590        4.1048577234        1.9136951456
 H       -14.9270799476        4.2274235763        0.8047590286
 H       -14.6214961539        5.4044004186       -0.2694493539
 H       -15.3693319944        6.4086785163        1.5713395325
 H       -13.8072081465        7.0879814288        1.3801498961
 H       -15.5044106549        8.8418081594        5.0626704011
 H       -15.3305259733        8.5905789276        3.1789158621
 H       -13.2204908494       10.4035451755        4.3232484218
 H       -14.4038108462       10.6199278015        5.3812142470
 H       -15.6932821991       14.9028595400        4.4980008138
 H       -16.8173801308       13.6886871685        3.9250779828
 H       -17.0053867931       15.3338769877        3.4147736853
 H       -12.3251532442       12.3794864231        3.1272446559
 H       -13.1499625437       13.0272095523        4.5836307079
 H       -12.8271966008       13.9914928775        2.9324327056
 H       -15.0898199203       12.2805426798        0.6548123731
 H       -14.3668690283       10.8453526396        1.5006293563
 H       -13.2052024613       12.0832868549        0.9716086552
 H       -15.8420839517        5.0233671921        4.6137958351
 H       -16.1392194913        6.8467531074        4.6139004701
 H       -15.4127922841        6.1728633237        5.9277496875
 H       -11.9922282027        5.6853585873        5.2283858168
 H       -13.2716434549        4.8915681218        5.9588312233
 H       -13.0048040304        6.5797403734        6.3930142434
 H       -12.2697648288        1.4421068104       -1.2435790597
 H       -11.6928022618        2.9983133060       -2.0841824114
 H       -13.4927046798        2.8188623873       -1.8349075408
 H       -12.9832170088        1.0990157744        0.8425471024
 H       -14.3414186224        2.2552227049        0.8107225693
 H       -13.1806000306        2.4676997009        2.0316081375
 H        -6.8265055296       -0.6161828598        1.7798326098
 H        -8.2312440425        0.0573117833        2.3307412225
 H        -6.6130122791        0.9307869380        2.4814697610
 H        -5.6665278439        0.2710695212       -0.9513817809
 H        -5.1561960505        0.5276054083        0.6556590554
 H        -5.5116217102        1.9367497156       -0.3901271891
 H        -8.5303314587       -5.2085739237       -3.1019765446
 H        -9.3683843254       -3.6553738318       -3.1944447693
 H        -9.3226635258       -4.5989423094       -1.6344044137
 H        -5.5606632164       -4.8526616740       -1.7478570166
 H        -6.8992328902       -5.6564658948       -1.1964102557
 H        -6.3971557947       -4.2463149448       -0.2764808208
 H        -6.6880636999        1.2566708850       -5.9122695191
 H        -6.0906774891       -0.2836941456       -6.7131072729
 H        -5.4334656380        1.4527706791       -7.1144169861
 H        -3.0471394709        0.6277578999       -6.9396916402
 H        -3.8703044522       -0.7884571878       -6.8250747942
 H        -2.5303208479       -0.3473106070       -5.5386529832
 Na       -6.8753608441        1.8565932426       -2.6165828435
