117

 C        -3.4147126890        2.7709865780       -5.7354993059
 C        -4.3097820192        1.9850422694       -4.8429555039
 O        -4.7963033756        2.3109408672       -3.7678174638
 C        -4.6025081583        0.5502900344       -5.3438215582
 C        -4.8559296674       -0.4528290900       -4.1344212111
 O        -5.6157087398       -0.2062269747       -3.1370540473
 C        -4.3801364875       -2.0025339459       -4.2555414357
 C        -5.1049503035       -2.7488274590       -3.1740984976
 C        -6.5831120562       -3.1420353804       -3.3708455684
 O        -7.1219671198       -2.9711999391       -4.4244304373
 C        -7.4219449981       -3.7275557371       -2.1232008242
 C        -7.6398756497       -2.5583789666       -1.1446683024
 O        -6.6711253419       -1.9201098947       -0.6447600320
 C        -9.0996555978       -2.0632453324       -0.9146294929
 C        -9.1818168586       -0.9489024303        0.1806523258
 C        -8.3898748501        0.2279559880       -0.4367762854
 O        -8.3551796872        0.5637807211       -1.5889428238
 C        -7.3154277489        1.0542081839        0.4814424123
 C        -7.8735070763        2.5163705114        0.4494836200
 O        -7.8116200760        3.1458418223       -0.6357427351
 C        -8.5194343547        3.2382183696        1.5771448530
 C        -9.8122187363        3.9372647206        1.2082685178
 C       -10.8405683750        2.8159233522        0.5296741055
 O       -10.3236046406        1.7721797196        0.1531529247
 C       -12.2628141862        3.0753180706        0.2118682497
 C       -12.6888393112        4.6323264981        0.3420118029
 O       -11.8228659273        5.4623964824        0.2117613309
 C       -14.1273023655        5.1206308347        0.5342378897
 C       -14.2489491281        6.2353795272        1.5736600867
 C       -13.8295454060        5.5540269726        2.9118571450
 O       -13.3634586701        4.4631601421        2.8643571416
 C       -14.0330190410        6.3598457255        4.3597584045
 C       -13.6385325587        7.9074649685        4.1979744810
 O       -12.5224930229        8.2109734686        4.1523808297
 C       -14.8392193914        8.9374556873        4.2786627117
 C       -14.2469651004       10.3732520802        4.3525152249
 C       -15.1422779926       11.5244517869        3.7742835119
 O       -16.3620233153       11.7334327079        3.9335108724
 C       -14.3957384768       12.6483213678        2.8560468794
 C       -15.2372415132       14.0108242218        2.5112883526
 O       -14.9793857163       14.7131264305        1.5572076801
 C       -16.3141071247       14.5753884716        3.4623129220
 C       -13.1205661465       12.9225715362        3.5358637206
 C       -14.2522327574       12.0599773857        1.3830768970
 C       -15.4674609396        6.0345264804        4.9338964933
 C       -12.9912564769        5.8528967517        5.3520535209
 C       -12.4786793033        2.5219837931       -1.2933786339
 C       -13.1934524532        2.1028564925        1.0923838260
 C        -7.2008898978        0.3740645710        1.8982193542
 C        -5.8434453717        0.9312255813       -0.1402795643
 C        -8.7261215976       -4.3575580500       -2.7426434382
 C        -6.6594747611       -4.9852380420       -1.4415168113
 C        -5.8769323217        0.6280622699       -6.3307333247
 C        -3.4490383503       -0.0623482897       -6.1242880184
 H        -3.7298734877        2.6674910010       -6.8326003006
 H        -2.2991451776        2.5713725890       -5.6781667999
 H        -3.4654243532        3.8191826057       -5.6021790103
 H        -3.3327638845       -1.8642361907       -4.1307648567
 H        -4.7601809790       -2.3728319572       -5.1752936355
 H        -5.3071366167       -2.0799507910       -2.2675141186
 H        -4.5509722970       -3.6367722830       -2.9252903087
 H        -9.6975843969       -2.8593610305       -0.6301320894
 H        -9.5088706812       -1.8761002403       -1.9469705697
 H        -8.7603334768       -1.1273491382        1.2241167759
 H       -10.2399346162       -0.5990844697        0.0092869139
 H        -7.9044074091        4.1252012210        1.8097172726
 H        -8.7360469139        2.5054242649        2.3376268243
 H        -9.4196086398        4.6540787749        0.3614638307
 H       -10.2204295689        4.5073303257        2.0609320321
 H       -14.7617696136        4.3321208374        0.8581826989
 H       -14.6024034376        5.3340949208       -0.5109972068
 H       -15.0843533512        6.9210311451        1.4033937725
 H       -13.3766438144        6.9464083535        1.5562697012
 H       -15.5930416448        8.7762164034        5.0983125706
 H       -15.2467960152        8.6610834163        3.2782959633
 H       -13.2362828406       10.2573859846        4.0684541606
 H       -14.0944592890       10.7049145098        5.3802752808
 H       -16.1090752209       14.3485624240        4.5413356247
 H       -17.2056652781       14.1499103898        3.1118464466
 H       -16.4026379344       15.6578253356        3.3877286602
 H       -12.3084476359       12.3191494807        3.1559574549
 H       -13.3108061947       12.5519967534        4.5803622039
 H       -12.8177329527       13.9098477676        3.4822590305
 H       -14.7899278335       12.7270325078        0.6110335603
 H       -14.7999775745       11.0541465972        1.3511864053
 H       -13.2034613794       11.7603222265        1.0757678367
 H       -15.6432260243        4.9463375386        4.9825012528
 H       -16.1176255748        6.5936958172        4.2707656404
 H       -15.5756158408        6.5798365912        5.8927081326
 H       -11.9978099010        5.5885561582        5.0192804681
 H       -13.4032623048        4.8751262516        5.6157155099
 H       -12.9024028228        6.5383278908        6.2501794631
 H       -12.6428794116        1.4290269128       -1.1965086297
 H       -11.5295601873        2.6915610006       -1.7726381174
 H       -13.1744003098        3.2535536245       -1.7242952793
 H       -13.0080905856        0.9978122835        0.9555318831
 H       -14.2437444206        2.2523859674        0.9243030922
 H       -13.1092201435        2.3342342066        2.1292585529
 H        -7.2653320186       -0.6866107635        1.8196352266
 H        -8.1955039361        0.5358003927        2.4994497824
 H        -6.2923686357        0.6933791174        2.3503447891
 H        -5.7060610712        0.1459079764       -0.9408690317
 H        -5.2176129992        0.4440705499        0.6030500768
 H        -5.3564211456        1.8271068374       -0.3883330302
 H        -8.5424626902       -5.4522187060       -3.0535481231
 H        -9.1315914219       -3.8007723521       -3.5808077238
 H        -9.5231434063       -4.4649594146       -2.0024925466
 H        -5.6623393708       -5.0239348111       -1.8071083440
 H        -7.1494756278       -5.8739017630       -1.7212121907
 H        -6.8073488784       -4.8634463565       -0.4534320774
 H        -6.6495832117        0.9736235560       -5.6066947036
 H        -6.2072216016       -0.3876980123       -6.6253907654
 H        -5.8484510173        1.4807336974       -7.0534296096
 H        -3.3204353809        0.4709146884       -7.0962175172
 H        -3.8038133912       -0.9985614592       -6.6160409929
 H        -2.4782766003       -0.0925624739       -5.5508361160
 Na       -6.9658842203        1.7167244951       -2.6047749277
