117

 C        -3.3446282239        2.7019862171       -5.7787121296
 C        -4.1998660014        1.8306431287       -4.8228782898
 O        -4.7087180440        2.2558232278       -3.7957179736
 C        -4.6114693043        0.3928858323       -5.3012910516
 C        -4.8745217701       -0.5399017574       -4.0803756925
 O        -5.5240624747       -0.1324213695       -3.1646426202
 C        -4.6041954841       -2.1040867224       -4.1695048730
 C        -5.1259075545       -2.9642036106       -2.9888016529
 C        -6.5854971500       -3.3931385143       -3.3403965366
 O        -6.9012991264       -3.2999835457       -4.4782249747
 C        -7.6316930818       -3.8258391283       -2.2117781222
 C        -7.8114155991       -2.7961004564       -1.1398807657
 O        -6.8717050472       -2.4105336463       -0.5352714992
 C        -9.2091985039       -2.2249950498       -0.7391587142
 C        -9.1386640139       -1.1597609479        0.2943864747
 C        -8.2837096616        0.1667685182       -0.2882510662
 O        -8.3137682230        0.3459756833       -1.5164864850
 C        -7.4021423098        1.1421164538        0.5929096915
 C        -7.9047441017        2.5795294869        0.3360625136
 O        -7.6667388293        3.0768169073       -0.7535173735
 C        -8.4083364604        3.4227059873        1.5590729166
 C        -9.8259353474        4.0106100654        1.2499593094
 C       -10.7359710256        2.9290042945        0.8837713923
 O       -10.3309757903        1.7711714630        0.7633082956
 C       -12.1989376537        3.2255580128        0.3325078230
 C       -12.6173265796        4.7343236120        0.3269243258
 O       -11.7699708455        5.5361983857       -0.0561432125
 C       -14.1382442618        5.2252732057        0.5172819366
 C       -14.1349634010        6.3237145779        1.6006423827
 C       -13.8201844677        5.6396225533        2.9280858788
 O       -13.1979901711        4.5882280525        2.9047715950
 C       -14.0449115999        6.4463087079        4.3034832908
 C       -13.7775058445        8.0033393489        4.0775617976
 O       -12.6889101344        8.4584886418        3.5294867269
 C       -14.9180417597        9.0956184303        4.1856421216
 C       -14.2324828081       10.4338933422        4.1096147713
 C       -15.1032576177       11.6888337128        3.7291478282
 O       -16.2050192676       11.7773327858        4.1887929977
 C       -14.4551004771       12.6337725522        2.8000920580
 C       -15.3184618761       13.9269069725        2.3768119576
 O       -15.1437547473       14.3812978632        1.2407302882
 C       -16.2717704914       14.4774566626        3.3487234742
 C       -13.0464998855       13.1796683506        3.4406637173
 C       -13.9683973055       11.9282866619        1.5280360154
 C       -15.4569701724        6.1265294055        4.6521537626
 C       -12.9360235158        5.9480247857        5.3017032591
 C       -12.6119112698        2.8773041247       -1.2496345662
 C       -13.0350776393        2.3022424931        1.3435226325
 C        -7.2490968399        0.7843958591        2.1314475313
 C        -5.9308814033        1.0433521279       -0.0736247415
 C        -8.9266138495       -4.2194896885       -3.0006138762
 C        -6.9038955706       -5.0600217731       -1.4927521889
 C        -6.0706961298        0.3685547333       -6.0314028777
 C        -3.5557551353       -0.1915447057       -6.3238076595
 H        -3.3682790846        2.4420836974       -6.8191547092
 H        -2.3407309811        2.6422812140       -5.4789173604
 H        -3.5360892422        3.7964750370       -5.7160252128
 H        -3.5063215566       -2.0870992509       -4.3568665326
 H        -5.2429923672       -2.3582759870       -5.0661155245
 H        -5.2217447724       -2.4031333651       -2.0832819467
 H        -4.5732132846       -3.9617616741       -2.8961086792
 H        -9.9340414395       -3.1274907262       -0.4744137327
 H        -9.6335736420       -1.9609922504       -1.6923582753
 H        -8.3978411662       -1.4100424686        1.0001096698
 H       -10.1124497215       -0.8233393799        0.5575051611
 H        -7.8082923039        4.2745478523        1.4985542428
 H        -8.5777960767        2.8850507550        2.4948529976
 H       -10.0672834461        4.6137291874        0.4052879800
 H       -10.1759051048        4.5053921100        2.1503042365
 H       -14.8902833938        4.3540404946        0.6987755070
 H       -14.4127878173        5.6004857711       -0.3926332244
 H       -15.0852675021        6.8580149582        1.6551810750
 H       -13.4581769380        7.1288654701        1.3839322660
 H       -15.1594942508        9.0128636041        5.2197885944
 H       -15.7952114707        8.9557528155        3.5749493857
 H       -13.3112802380       10.2083671324        3.4620317354
 H       -13.6453969847       10.7000759235        5.0287918714
 H       -16.9801615116       13.8000893399        3.8546301646
 H       -16.7698849245       15.3556868495        2.8250474460
 H       -15.6132421281       14.8941551963        4.1386011039
 H       -12.3000061191       12.3970575838        3.3214205989
 H       -13.0641321901       13.3726216247        4.4767282733
 H       -12.8860700784       14.1566374616        2.8613948862
 H       -13.1934907019       12.4949738524        1.1485950263
 H       -14.6813913352       11.8386351599        0.8069965924
 H       -13.6475917792       10.9466769760        1.7500197190
 H       -15.2412334665        5.2021651552        5.2787098097
 H       -16.0594501544        5.9666006352        3.7043288375
 H       -15.9946144472        6.8844367460        5.1976344478
 H       -11.8734346044        6.2431393034        4.9709724513
 H       -12.8477877444        4.9160843272        5.2775697949
 H       -13.1556079487        6.3846857901        6.3061983946
 H       -12.7829414704        1.8752330906       -1.3937356169
 H       -11.7545494642        3.2107580572       -1.8944153589
 H       -13.4615426107        3.4707566173       -1.2579177968
 H       -12.7337074483        1.2991761210        1.3676976094
 H       -14.0932964776        2.2619550904        1.0921329814
 H       -12.9468050767        2.6351092784        2.3964598929
 H        -6.5301493418       -0.0945102313        2.2348517843
 H        -8.1138901089        0.4329087221        2.6429730165
 H        -6.7493733776        1.7083527672        2.4941030230
 H        -5.6997494139        0.1033008208       -0.5685206164
 H        -5.0488033417        1.1117221885        0.5754935114
 H        -5.7874967684        2.0349780154       -0.6604106372
 H        -8.7571750172       -4.8642380003       -3.7738925638
 H        -9.4529968553       -3.3159592577       -3.3250189760
 H        -9.5761414714       -4.8549417203       -2.3814485781
 H        -6.0404742423       -4.5818484245       -0.9888909955
 H        -6.5099321367       -5.7406072549       -2.2871567482
 H        -7.8006848856       -5.6001587518       -0.8442816177
 H        -6.9424642108        0.6349988384       -5.4422207885
 H        -6.1055838804       -0.6282024317       -6.3794714171
 H        -6.0008074368        1.0145210671       -6.8368866070
 H        -3.6811988971        0.1398384131       -7.3264365955
 H        -3.6140010062       -1.2788358461       -6.4235099359
 H        -2.5649167030       -0.0372173663       -5.8971921656
 Na       -6.8395657297        1.8429496725       -2.6144127996
