117

 C        -3.1213455089        1.9704482423       -5.3281097170
 C        -4.4959325651        1.5509200041       -4.8779802952
 O        -5.2253590636        2.3316009102       -4.3599043087
 C        -5.0098603507        0.0774403414       -5.1434454790
 C        -5.1289668852       -0.8649820141       -3.7648726176
 O        -5.5175313721       -0.3123047173       -2.6764770895
 C        -4.7078621428       -2.3169700352       -4.0064191074
 C        -5.2932468131       -3.0855227899       -2.7846221202
 C        -6.7833276125       -3.5134843793       -3.2852922651
 O        -7.0063452911       -3.3572872116       -4.4902363978
 C        -7.8569504244       -4.0722395703       -2.3176544658
 C        -7.7864272350       -3.1498858907       -1.0248498614
 O        -6.8915881478       -3.1939892951       -0.1497855463
 C        -9.0574563366       -2.0710150885       -0.7115269485
 C        -8.8329262251       -1.2146308618        0.5156707553
 C        -7.9684756957        0.0653525005       -0.0850013209
 O        -7.7310665045        0.0872035693       -1.2565383818
 C        -7.3234366250        1.1317325410        0.8935691660
 C        -7.6846164877        2.5607435461        0.2673001365
 O        -7.3079617317        2.8717504307       -0.8726701474
 C        -8.3439798673        3.6278191414        1.1016467284
 C        -9.6634567567        4.0722023242        0.5608775413
 C       -10.7006785445        3.0634765662        0.9094487098
 O       -10.4324044226        2.0632320320        1.5032179422
 C       -12.0907551977        3.2257971438        0.2499173848
 C       -12.5312906606        4.7877151425        0.2215293773
 O       -11.7707963403        5.6380659910       -0.1593801245
 C       -13.9632450105        4.9579685794        0.6055562693
 C       -14.1480967666        6.1249463798        1.5940757777
 C       -13.3988494533        6.0514705286        3.0106667223
 O       -12.5400924392        5.2202850694        3.1024161798
 C       -13.9206722983        7.0216590471        4.0881762644
 C       -13.7500329712        8.4538820843        3.7055122626
 O       -13.1271960323        8.8175509366        2.7655811659
 C       -14.4949717330        9.5027592744        4.5602999195
 C       -13.8355615551       10.8175009682        4.3547791074
 C       -14.7772212661       11.8986256776        3.6116179654
 O       -15.9766458259       11.9319899523        3.8574197150
 C       -14.2634240046       12.9900184995        2.6202113120
 C       -15.5122446524       13.6621892058        2.0879726861
 O       -15.9179350903       13.3484298472        0.9994424799
 C       -16.2036779556       14.8035346131        3.0364392413
 C       -13.0538955765       13.8603905254        3.2346944787
 C       -13.7309100525       12.0192421342        1.3506985249
 C       -15.5436666259        6.8318088437        4.1730361537
 C       -13.2498481247        6.5401633046        5.5015739273
 C       -12.2435679415        2.6617002322       -1.2740033627
 C       -13.0734734679        2.2570935223        1.0841530691
 C        -7.7705791717        0.9509312760        2.3113852583
 C        -5.7906308602        1.0778049817        0.8690798034
 C        -9.1760885235       -3.9486486877       -3.0713798280
 C        -7.5230948715       -5.5934847373       -1.9048142654
 C        -6.4215733655        0.0443817833       -5.8005034467
 C        -4.1693959091       -0.6219715137       -6.1441135666
 H        -3.1242837727        2.5293716802       -6.2647017349
 H        -2.4763438974        1.1373054896       -5.6008497102
 H        -2.6467952764        2.4414087484       -4.5331043080
 H        -3.5533235990       -2.3324889250       -4.0592597945
 H        -5.1172787991       -2.5958460884       -5.0207247223
 H        -5.5466046929       -2.4851317441       -1.9113774392
 H        -4.6922816206       -3.9580408833       -2.5484963659
 H       -10.0060954097       -2.4441395002       -0.7654643450
 H        -9.0105559395       -1.4193174086       -1.6180781689
 H        -8.1307120646       -1.6555263999        1.1883143154
 H        -9.7930573522       -0.9021060682        0.7868414317
 H        -7.7549796151        4.5671229743        0.9254416296
 H        -8.3865710696        3.3645816986        2.1793899545
 H        -9.5369011715        4.0997609018       -0.5236928026
 H       -10.1233991444        4.9953890686        0.7753540878
 H       -14.2840444011        4.1083913232        0.9727282251
 H       -14.4342869252        5.1826742836       -0.3476866959
 H       -15.2093204171        6.0586913834        1.7306058258
 H       -13.9471131180        7.0911431436        1.0745799463
 H       -14.5522242465        9.3950085227        5.6524910579
 H       -15.5258150907        9.6643840893        4.3276103630
 H       -12.9035150602       10.6624119173        3.7495240963
 H       -13.5369248877       11.1987145202        5.3682185995
 H       -15.6764680728       15.8053290900        3.0126789098
 H       -16.0257986602       14.5077252577        4.0628165245
 H       -17.3086287980       14.8644581866        2.8386816315
 H       -12.9645882199       13.3931291915        4.2097222729
 H       -13.1560893292       14.9708577663        3.1826655540
 H       -12.1420716059       13.7225312268        2.7343264022
 H       -14.0963165196       11.0335900586        1.2876878840
 H       -12.6811703022       12.0831280818        1.4284604504
 H       -13.9669643501       12.5322767431        0.5003880585
 H       -15.6860761335        5.7498725843        4.0784685630
 H       -15.8390769058        7.3912248416        3.2615779774
 H       -15.8626821939        7.2732329459        5.1715434760
 H       -12.2903687126        6.1708340318        5.4230385497
 H       -13.9850446934        5.7102164773        5.7993803441
 H       -13.4308470058        7.2970545654        6.2620501999
 H       -12.3177528587        1.5726105196       -1.2870984406
 H       -11.3561138018        3.0437757828       -1.6636636801
 H       -13.1587917402        3.0265083564       -1.7144238341
 H       -12.5518500707        1.4285958672        1.5987660845
 H       -13.7376977547        1.7790253489        0.4336710471
 H       -13.5735891249        2.5986050074        1.9302007349
 H        -7.2409941732        0.1301144526        2.6936682947
 H        -8.9000218456        0.7996406736        2.3260764269
 H        -7.5347391923        1.7329014264        3.0110610051
 H        -5.3565837914        0.3444308758        1.6489511910
 H        -5.3820372492        2.0670707795        1.1871462275
 H        -5.3294238901        1.1237465444       -0.0724636293
 H        -9.0542493618       -4.6962461117       -3.9360707496
 H        -9.3342069986       -3.0282769825       -3.5778810028
 H       -10.0061967659       -4.2794550627       -2.4980380355
 H        -7.1018885088       -5.5305450887       -0.8096233287
 H        -6.8113439955       -6.0406402961       -2.7055622093
 H        -8.4354140959       -6.1122623730       -1.9028696262
 H        -6.9914829852        0.5061013068       -5.0491244974
 H        -6.7838073370       -0.8962815502       -6.0843974435
 H        -6.4261520204        0.6055167381       -6.7184300798
 H        -4.1344559045       -0.1240529990       -7.0781692595
 H        -4.4140230418       -1.6206432380       -6.2041181592
 H        -3.1839823418       -0.8202055002       -5.8077563844
 Na       -6.6270072985        1.7574770060       -2.6682531304
