117

 C        -3.0544228714        1.7252010021       -5.0193769037
 C        -4.5516598952        1.3276726603       -4.9038037700
 O        -5.3954313181        2.1767276911       -4.4818192084
 C        -5.1012008184       -0.0764252673       -5.2301862554
 C        -4.9705025241       -0.9295959622       -3.8774173301
 O        -5.1787766858       -0.3231339318       -2.9150143190
 C        -4.4431111826       -2.4834131485       -3.7328242108
 C        -5.3510462182       -3.2740835948       -2.8348537670
 C        -6.8481914288       -3.4192825938       -3.2418175865
 O        -7.1439332398       -3.1988844415       -4.3823148977
 C        -8.0099794896       -4.0903395459       -2.2387754914
 C        -8.0474491181       -3.2525066282       -0.8807069741
 O        -7.1628946631       -3.5717606765       -0.1326744483
 C        -9.1080471171       -2.2602962166       -0.5237265879
 C        -8.6142001873       -1.2138474501        0.5465515085
 C        -7.8002941741        0.0026699368       -0.0938167193
 O        -7.5927190871        0.2089387539       -1.3177616743
 C        -7.2718687652        1.1493627205        1.0164525460
 C        -7.4815593207        2.5946255502        0.3864106419
 O        -7.0887020243        2.8189852920       -0.7493203938
 C        -8.1929418073        3.7489130812        1.1338504341
 C        -9.5513084675        4.1416725700        0.4987504194
 C       -10.6667320716        3.0963481067        0.8708863082
 O       -10.3558696337        2.2478483384        1.7040293016
 C       -12.0816414472        3.0657408989        0.1946898047
 C       -12.7080519751        4.4589278208        0.3011368396
 O       -12.0073168271        5.2974114777       -0.2406920409
 C       -14.1935381876        5.0284777503        0.7284791536
 C       -14.1324757151        6.4205802735        1.3795151440
 C       -13.5172232620        6.3640057603        2.7003821662
 O       -12.6420784080        5.5132209099        2.8892199184
 C       -14.1158515750        7.2352202285        4.0000162232
 C       -13.8347080346        8.7065448964        3.7068259899
 O       -13.1990072399        9.0226686945        2.6590296273
 C       -14.1330027761        9.7440953319        4.8474013123
 C       -13.6480650614       11.3325645888        4.5218275131
 C       -14.7311781787       11.9717373687        3.5720033343
 O       -15.8691451190       11.7805228289        3.9185853965
 C       -14.2004033444       12.9934114180        2.4008309068
 C       -15.5958681543       13.7063941554        1.8918658669
 O       -16.2855477755       13.1358293909        1.0435197268
 C       -16.0909574298       14.8154870406        2.7805761340
 C       -13.2090998196       13.9882428699        3.0577502073
 C       -13.4341835357       12.1526750905        1.3298896510
 C       -15.6527233005        6.9915954918        4.2855364303
 C       -13.3284508261        6.7082115677        5.3067182492
 C       -12.1024553511        2.8076566516       -1.3480869034
 C       -12.9045243474        2.0215406337        0.9049565223
 C        -7.8025208000        0.9389123679        2.4820931843
 C        -5.6941350837        0.9694081221        1.0060000182
 C        -9.3870605412       -4.1312304087       -3.0584407330
 C        -7.6314095773       -5.4890995415       -1.8658634480
 C        -6.5894553995       -0.0428351074       -5.4883318338
 C        -4.3139580902       -0.6723021978       -6.4472081883
 H        -2.8777224300        2.2186878614       -6.0095706246
 H        -2.3636009453        0.9018298521       -5.1313830810
 H        -2.7844934248        2.3708667387       -4.1570793841
 H        -3.4508930516       -2.4243784257       -3.3797718394
 H        -4.4151596843       -2.9240813775       -4.7270315074
 H        -5.5107094872       -2.9097289516       -1.8306512182
 H        -5.0391352147       -4.3566371858       -2.7243474009
 H        -9.8581383533       -2.9900538901        0.0149452327
 H        -9.6155196818       -1.9058874185       -1.3731736350
 H        -7.8554978708       -1.7208332140        1.1831034681
 H        -9.5527205846       -0.7625667951        0.9227146926
 H        -7.5341465984        4.6082008657        0.9365095245
 H        -8.3911102440        3.7177702719        2.2222087842
 H        -9.5741434550        3.9494249598       -0.6175031421
 H        -9.7669610174        5.2391195760        0.6275467791
 H       -14.7757816612        4.2164203427        1.3905085360
 H       -14.5589500769        5.1635316786       -0.2952688241
 H       -15.1154009640        6.9145354164        1.2833952270
 H       -13.3537141396        7.0170580473        0.9179643847
 H       -13.6362862402        9.3061113736        5.7233039194
 H       -15.2075022571        9.8740198285        5.1726648858
 H       -12.6374939868       11.2839405255        4.1532462201
 H       -13.7215767651       12.0031062819        5.3207026962
 H       -15.2249482877       15.2997556441        3.1903349461
 H       -16.6252083346       14.4183384691        3.6579571308
 H       -16.7127922635       15.4794490765        2.2461639903
 H       -13.1683666599       13.9115931770        4.1583620647
 H       -13.5253160367       14.9481775979        2.6807414884
 H       -12.0890054096       13.9011133903        2.7362343591
 H       -14.1312072111       12.1754716540        0.4627668079
 H       -13.2493216787       11.1593106060        1.6997228122
 H       -12.4455538604       12.5637681741        0.9642872793
 H       -15.7065095828        5.9038959384        4.4886671374
 H       -16.2194982475        7.1703691282        3.3992401338
 H       -15.8110612344        7.5911356775        5.0941768745
 H       -12.2192298621        6.6408634949        5.0531865686
 H       -13.7513877540        5.8025964692        5.4882851374
 H       -13.5599915220        7.3538290666        6.2005504891
 H       -12.3123002402        1.7647441207       -1.5192559205
 H       -11.1621313882        3.3297282802       -1.7152357772
 H       -12.9994686174        3.3193611051       -1.7287844938
 H       -12.6930233151        1.0025556882        0.6480926538
 H       -14.0295503063        2.0445568386        0.8970006937
 H       -12.5744672429        2.0560684411        1.9904098418
 H        -7.7587584231       -0.0960978404        2.8089495325
 H        -8.7898949944        1.4534420887        2.7071961194
 H        -7.1985172991        1.4872798529        3.1723567786
 H        -5.4929484159       -0.0667582313        1.1104936828
 H        -5.0754394607        1.4967194386        1.7483071569
 H        -5.1704947136        1.3654769048        0.0661357554
 H        -9.3611770005       -4.4294259274       -4.0517172999
 H        -9.8108667402       -3.0935614839       -3.1029991932
 H       -10.1302231434       -4.7011608020       -2.4476679859
 H        -6.6479839863       -5.5338552886       -1.5276019323
 H        -7.8681258547       -6.1286820234       -2.6529264511
 H        -8.2232384689       -5.7127833396       -0.9958912339
 H        -7.0941970220        0.5777108554       -4.6789167121
 H        -6.8777514515       -1.1049951550       -5.4543558974
 H        -6.8536061123        0.2150020385       -6.4868123101
 H        -3.9566432841        0.1729017782       -7.0237488157
 H        -4.8782659655       -1.3783773787       -7.1272472783
 H        -3.3580131370       -1.2089324784       -6.1912182344
 Na       -6.5460557861        1.5970324077       -2.6533535956
