117

 C        -3.1029335476        1.3953670093       -4.9738652433
 C        -4.6277914541        1.2007899532       -4.8819502552
 O        -5.3922929634        2.0233096467       -4.5292763488
 C        -5.1274822476       -0.3159531731       -5.1725795631
 C        -4.8817598317       -1.0660800140       -3.7896984591
 O        -4.9062715938       -0.4074963150       -2.6949926304
 C        -4.6976817490       -2.6410799190       -3.8238606026
 C        -5.5219036645       -3.2157197940       -2.7091391339
 C        -7.0533014673       -3.3438004469       -3.2566068851
 O        -7.3974476913       -2.9100898820       -4.3166001155
 C        -7.9948489387       -3.9580196392       -2.2267926020
 C        -7.9213435035       -3.2478146621       -0.8663724144
 O        -7.2083485903       -3.5472617606        0.0643599300
 C        -8.9302396615       -2.1334538882       -0.4704589555
 C        -8.4456715703       -1.2743278987        0.6879498535
 C        -7.7930265490       -0.0134098710       -0.0284275082
 O        -7.7704808159        0.0545692947       -1.1966174312
 C        -7.1183010065        1.0890226618        0.9343541238
 C        -7.3949614278        2.6044593477        0.2975543256
 O        -6.9256996905        2.9094755985       -0.7886930778
 C        -8.1658124681        3.5533088842        1.1058249939
 C        -9.6151818363        3.9345753100        0.4025332018
 C       -10.8012040867        3.0854846105        0.9514052625
 O       -10.6048795044        2.2697916852        1.8050577130
 C       -12.1857579441        3.1177935164        0.2065198222
 C       -12.6902809489        4.6865065205        0.2105147756
 O       -12.0243355901        5.5647566459       -0.2969049041
 C       -14.1216499528        4.9013333280        0.8789407262
 C       -14.2798805279        6.3774947344        1.3967602252
 C       -13.6858525214        6.5196034238        2.7399687271
 O       -12.6829378891        5.8085922452        2.8447468413
 C       -14.1015385523        7.4127628920        3.9093699132
 C       -13.7022167824        9.0370150283        3.6272364266
 O       -13.3539585033        9.3438445096        2.5466681405
 C       -13.5888800147        9.9090960795        4.8687388640
 C       -13.4468745051       11.2740888328        4.3851948514
 C       -14.6030520115       11.9116493874        3.6688737116
 O       -15.7944381297       11.6733940985        3.7511054700
 C       -14.2907741987       12.9307050511        2.4829504529
 C       -15.6222141742       13.5647934723        1.9877032649
 O       -16.0641580279       13.0293587170        0.9984506339
 C       -16.2651220229       14.8924613476        2.4540256080
 C       -13.2386589280       14.1222591776        2.9634272810
 C       -13.7438353253       12.2043028054        1.3468529170
 C       -15.7156630601        7.2407663815        4.0955576019
 C       -13.3376183035        7.0125977693        5.1338464666
 C       -11.7383171202        2.7084768059       -1.3347656787
 C       -13.0720427358        2.0798800267        0.7664444037
 C        -7.6919075318        0.9758495057        2.4588569497
 C        -5.6298089598        0.6321903576        0.9043520998
 C        -9.4498216738       -3.9593279634       -2.7298363690
 C        -7.5667802005       -5.5631756757       -2.1429334557
 C        -6.7001371898       -0.3077861538       -5.3983283406
 C        -4.4709001108       -0.9328304621       -6.4267021506
 H        -2.6801218672        1.4024753882       -5.9364998313
 H        -2.6013325699        0.4612373240       -4.6138510994
 H        -2.8490545220        2.3007416331       -4.3766550820
 H        -3.6210119716       -2.7061038809       -3.4555307654
 H        -4.7451538101       -3.0078035270       -4.8607505891
 H        -5.4308019758       -2.5594212276       -1.7691770746
 H        -5.3392138271       -4.2144877646       -2.3988266640
 H        -9.9253757392       -2.4723905496       -0.4293364293
 H        -8.8580023837       -1.3886692845       -1.3682219192
 H        -7.6930921166       -1.8885962631        1.2507150018
 H        -9.3452717254       -0.8745761469        1.1252474522
 H        -7.6459281517        4.4760774438        1.4387352589
 H        -8.4411283429        3.1455303912        2.0901573939
 H        -9.6715858745        4.0203114743       -0.6324198441
 H        -9.8713840620        4.9765838410        0.7075870734
 H       -14.2521410360        4.1642060420        1.5444381003
 H       -14.7528618715        4.8190656435        0.0020437362
 H       -15.3602828396        6.5583982415        1.5130593543
 H       -13.7905994010        7.0967940926        0.6668864438
 H       -12.8520463998        9.6989171567        5.6425902497
 H       -14.5137907915        9.8571414876        5.3771964657
 H       -12.5414421872       11.1048373763        3.7369490258
 H       -13.1505070879       12.0096652035        5.2469847661
 H       -15.6870739380       15.4938664980        3.1290862248
 H       -17.1960587705       14.5789512584        2.9437053252
 H       -16.5857626145       15.4684029357        1.5547489572
 H       -13.7036118301       15.0701143183        3.3061522566
 H       -12.5829054294       14.3602178162        2.1065417386
 H       -12.7275778912       13.8325099768        3.8045981635
 H       -13.7974870546       12.8517416891        0.4468893918
 H       -14.4188907707       11.2694640411        1.2814613897
 H       -12.7272627493       11.8163888422        1.4980962233
 H       -15.8683796075        6.2023482108        4.0398336685
 H       -16.2931073432        7.6974224645        3.2670568175
 H       -15.7287592980        7.7688185833        5.1244443445
 H       -12.4384447472        7.5841286277        5.0511706515
 H       -13.2142772157        5.8459028056        5.2050357036
 H       -13.8638853513        7.3701985745        5.9629752088
 H       -10.8644716191        2.0609660299       -1.1858043346
 H       -11.6811705358        3.5813416084       -1.8604684762
 H       -12.4856078357        2.0354078817       -1.7240138956
 H       -13.3664024680        1.1964418440        0.1479734823
 H       -14.0272543509        2.5193084818        0.9948176238
 H       -12.7679551531        1.6975809326        1.7126964847
 H        -7.2551870297       -0.0075251574        2.8405305177
 H        -8.7249121355        0.9357344081        2.5318662403
 H        -7.5229634362        1.8331989741        3.2181074835
 H        -5.4538220278       -0.4035832181        1.2416938050
 H        -4.9440305510        1.2811942376        1.4840896244
 H        -5.2635002102        0.5661564755       -0.1348237550
 H        -9.4769956455       -4.6568830247       -3.6325661496
 H        -9.8754201569       -3.0611926384       -3.1077837934
 H       -10.0794793701       -4.2472454277       -1.9310268171
 H        -6.4661798936       -5.5584387937       -2.2505721686
 H        -8.0568928383       -6.1049095938       -3.0041504936
 H        -7.7088300051       -6.0655375568       -1.0525792152
 H        -7.1780420057        0.0186468801       -4.5256926802
 H        -7.0655602659       -1.2691417620       -5.8001550348
 H        -6.9001458918        0.4140239421       -6.2773695505
 H        -4.4605204076       -0.3000731317       -7.3896177766
 H        -5.0738243369       -1.8213468532       -6.6489690819
 H        -3.4245647517       -1.2366448462       -6.3045193058
 Na       -6.3620193793        1.4555381242       -2.4288014024
