117

 C        -5.7699657335       11.3082222772       -0.1704019385
 C        -6.5180407231       10.9090915986        1.0632341387
 O        -7.7461581769       10.9366928358        1.0599970169
 C        -5.7120977539       10.3593734934        2.3762633893
 C        -5.2530962355        8.9010512061        2.0771691110
 O        -4.1158444250        8.5671307800        1.9215157452
 C        -6.4464075426        7.6881099523        1.9789010279
 C        -5.7964866201        6.2904460600        1.5376296777
 C        -6.8262759866        5.5456321453        0.6515098628
 O        -7.9873787056        5.6802332684        0.9361001586
 C        -6.4356998042        4.6854029443       -0.5809677470
 C        -6.0664130836        3.2568321335       -0.1295602640
 O        -4.8904475027        3.0016427988       -0.0196747411
 C        -7.1240459438        2.2678394199        0.3324620620
 C        -6.6601510782        0.9364678337        0.9213634340
 C        -7.8352494369        0.0965884900        1.3739726310
 O        -8.7959828309       -0.0241349851        0.6249354884
 C        -7.8219984568       -0.5868692725        2.8902583910
 C        -8.7664804879        0.4569933424        3.6538586544
 O        -8.3220240862        1.2793689364        4.4292757092
 C       -10.2818924282        0.1225962623        3.7234536252
 C       -11.1560397112        1.3972157610        3.8237056834
 C       -11.0676179699        2.1276246866        2.5028821983
 O       -10.0812752692        2.0825957446        1.7949853308
 C       -12.2150039870        3.1752532450        2.1202148601
 C       -13.1689100004        2.5849631397        0.9486713641
 O       -12.7271102016        1.6443532683        0.2868851752
 C       -14.6275649993        3.1068364364        0.6744676985
 C       -14.9234071125        2.9028540651       -0.7785630041
 C       -14.7303097479        4.2452187368       -1.5728386831
 O       -14.1003722226        5.1919766644       -1.1218229856
 C       -15.1543141504        4.1427572939       -3.2358354511
 C       -13.8445371024        3.5607715952       -3.7899391054
 O       -13.6846400527        2.3643276156       -3.7848997013
 C       -12.6832341642        4.4312121569       -4.0211267883
 C       -11.5960460133        3.4063352188       -4.4726468727
 C       -11.2555107406        2.3707643740       -3.4251956388
 O       -11.1928820729        2.6326215532       -2.2503590785
 C       -10.7982444341        0.9097104227       -3.8776683588
 C       -11.8018135400       -0.2097714723       -3.2841643557
 O       -11.8667959373       -0.2958801613       -2.0840426270
 C       -12.5673499491       -1.0959189743       -4.1759600315
 C       -10.5904417216        0.7498148334       -5.3751666208
 C        -9.3746978671        0.6156827286       -3.2542623733
 C       -16.3356967677        3.1476442882       -3.4107977300
 C       -15.5743371924        5.4784627822       -3.8587709339
 C       -13.1115015573        3.4313605294        3.3423117860
 C       -11.5751104489        4.5021887405        1.6036715108
 C        -8.3504133180       -1.9726203755        2.6455192724
 C        -6.5047592114       -0.5172924734        3.5819115105
 C        -7.6788956627        4.6489490092       -1.5361231980
 C        -5.1478179554        5.1244948522       -1.3878132118
 C        -4.5674169961       11.3787964662        2.5286212748
 C        -6.6218257536       10.3309620705        3.7096288916
 H        -5.7824941398       12.3561085757       -0.2668816114
 H        -6.3026617540       10.8920528621       -1.0346300965
 H        -4.7774604486       10.9792900644       -0.2773261459
 H        -7.3977315238        7.9125622439        1.3434824953
 H        -6.9041531839        7.7187822227        3.0060562988
 H        -5.4960616564        5.6850389668        2.3692316043
 H        -4.8330136698        6.3943211137        1.0261449741
 H        -7.8497618340        2.0750224874       -0.4399670667
 H        -7.7762609391        2.8915808772        0.9789553456
 H        -5.9703569136        1.1736119274        1.7638355707
 H        -6.0177088898        0.3150295720        0.3268575345
 H       -10.2411133734       -0.6963713213        4.4424801204
 H       -10.6636940387       -0.3670294203        2.8405576243
 H       -10.8453866465        2.0539490107        4.6189345333
 H       -12.2699555221        1.1724744957        4.0675761082
 H       -14.7293754707        4.1450234702        0.9646094946
 H       -15.2238622727        2.6019763747        1.4109347944
 H       -16.0149416577        2.6241467443       -0.8560082288
 H       -14.2131934450        2.1970399384       -1.2553561652
 H       -12.4059493498        4.9168552024       -3.0752874221
 H       -12.8406794560        5.1748861470       -4.8070905262
 H       -10.6788980732        3.9698259029       -4.6020929747
 H       -11.7895842925        2.8173984805       -5.4036477650
 H       -13.6286470262       -0.7511439629       -4.2296638764
 H       -12.4641907827       -2.0365662590       -3.7638469938
 H       -12.0490358530       -1.1414782076       -5.1243884450
 H       -10.1182279437        1.6595270250       -5.8936775808
 H       -11.5752832810        0.6517223679       -5.8684791439
 H        -9.9912592460       -0.1526129907       -5.5847268313
 H        -9.4557014745        0.7883247293       -2.1896231606
 H        -8.6033938020        1.2537515329       -3.6570493980
 H        -9.0569187702       -0.4248318586       -3.5492088789
 H       -16.0443425430        2.1293427482       -3.3661747348
 H       -16.8883569745        3.3274719152       -4.3528693906
 H       -16.9909010814        3.4186180776       -2.5899674365
 H       -15.8595922524        5.3552967949       -4.9280765159
 H       -14.7231032879        6.1334068072       -3.7731407560
 H       -16.4380602784        6.0043210641       -3.3170151722
 H       -12.4722346373        3.9004197112        4.1401497461
 H       -13.7106850967        2.5098149207        3.6794033352
 H       -13.8750282957        4.2307495607        3.1468612116
 H       -10.9209927696        4.8587371324        2.3981245529
 H       -12.2571830457        5.3287405217        1.4266581211
 H       -10.9988549669        4.2628433036        0.6649588368
 H        -8.5943366360       -2.4835709923        3.5553056057
 H        -7.6053260738       -2.5585171468        2.1725827348
 H        -9.1714981491       -1.8662588665        1.8232635522
 H        -5.6843148916       -1.0254047888        3.0423477407
 H        -6.6703012737       -1.0233649338        4.5316436824
 H        -6.1901550232        0.5401667685        3.9496982681
 H        -8.0150711408        3.6685502999       -1.8678051910
 H        -7.4212862098        5.1904931384       -2.4741657830
 H        -8.5151558728        5.0236107374       -1.0034997662
 H        -5.2376387765        6.0083738743       -2.0169006622
 H        -4.8786548548        4.3150004570       -2.0864219469
 H        -4.2319473191        5.2603482613       -0.8077563491
 H        -4.0228064428       11.5415501744        1.5895847203
 H        -3.7414124403       11.0810258458        3.2396536473
 H        -4.8903262845       12.3520872076        2.8620556069
 H        -7.6195443960        9.9176571514        3.6287747506
 H        -6.8904814655       11.3345670941        3.9000122599
 H        -6.1154715351        9.9136953734        4.5812927372
 Na      -10.7542930843        1.2458042070       -0.3823325124
