117

 C        -3.4707699702        1.1667349034       -5.8902059388
 C        -4.4138141602        0.7890836712       -4.8083738279
 O        -4.4886177151        1.5421549534       -3.8245252248
 C        -5.2307149943       -0.4805374921       -5.0077913407
 C        -5.3416380659       -1.3533137058       -3.6230651280
 O        -5.3595471555       -0.9889443606       -2.4936357760
 C        -5.4424475142       -3.0191360931       -4.0568882258
 C        -6.0024575235       -3.8453283186       -2.9952162077
 C        -7.4753689109       -3.3326335210       -2.7877576056
 O        -7.8003159487       -2.4003595670       -3.4774743396
 C        -8.3721399561       -4.1126170509       -1.6784876525
 C        -8.1455564474       -3.3215415116       -0.3805095832
 O        -7.2894917365       -3.5538113791        0.4320807404
 C        -9.2071916521       -2.1270439075       -0.2741897560
 C        -8.7807153738       -1.1777299067        0.9247880492
 C        -7.6575153791       -0.2309806743        0.3503704909
 O        -7.2914931153       -0.3290980244       -0.7816458928
 C        -6.9166895091        1.0071249266        1.2293067426
 C        -7.4341408461        2.2825082454        0.4344124880
 O        -7.1377171016        2.5346715419       -0.6712233698
 C        -8.2169162697        3.4216499351        1.2226159306
 C        -9.5448589224        3.6063804206        0.3941899966
 C       -10.7888731285        2.7615115876        0.7139125009
 O       -10.8818561092        1.9990725660        1.6518983288
 C       -12.1681618455        3.2899003221       -0.1268841139
 C       -12.3680966653        4.7797639255        0.2611988683
 O       -11.6338266197        5.7623251107       -0.0987509940
 C       -13.6470109006        4.9129279759        1.1579739430
 C       -14.0046943700        6.3327043846        1.5423978811
 C       -13.4187961134        6.8169132832        2.7299600601
 O       -12.3373578998        6.3859249947        3.1298304923
 C       -14.0446650237        7.9081453044        3.6165768895
 C       -13.3977414246        9.3282972935        3.0883673799
 O       -13.3470622404        9.5970613862        1.9164037551
 C       -13.0928159537       10.3250404423        4.3603985514
 C       -12.6432245989       11.7129840977        3.6779327560
 C       -14.0374959039       12.3022814897        3.2178887767
 O       -14.9990845314       11.7811171863        3.7235308596
 C       -14.2571855028       13.2726732924        1.9658848188
 C       -15.8262897571       13.3327152103        1.6035658765
 O       -16.2180782877       12.6840776697        0.6516532167
 C       -16.7745694176       14.0492129848        2.5153463544
 C       -13.8218004685       14.8379009064        2.3379396915
 C       -13.3114182467       12.6753129000        0.8149987048
 C       -15.6935860636        7.9475549316        3.5009204615
 C       -13.6326307398        7.7304785571        5.1180875954
 C       -11.8230865736        3.3711476463       -1.7106510754
 C       -13.3334672428        2.2756057940        0.2473257054
 C        -7.3587630275        0.8208530714        2.7315924519
 C        -5.4206602652        0.7917448121        0.9880058125
 C        -9.7713911045       -4.1014313086       -2.1681485884
 C        -7.9131404717       -5.5392757170       -1.3471170868
 C        -6.6916200613       -0.2280315945       -5.3464926838
 C        -4.6502274907       -1.2508887171       -6.1824784940
 H        -3.8817280365        1.5116803948       -6.7630848249
 H        -2.6264460982        0.5260042012       -6.0918584454
 H        -2.9965046284        2.1206057369       -5.4908578112
 H        -4.5013602437       -3.4814016369       -4.2980686846
 H        -6.0374138387       -3.1906561216       -4.9902817938
 H        -5.3592471742       -3.8357826442       -2.0666694855
 H        -6.1046118188       -4.9030413236       -3.2133615870
 H       -10.2655997243       -2.4121371982       -0.1119442192
 H        -9.2557440270       -1.5981012644       -1.3230885583
 H        -8.3088524274       -1.7396027097        1.7678853294
 H        -9.6032229545       -0.5268517510        1.0861920917
 H        -7.5189466321        4.2460154859        1.4383883635
 H        -8.4360665643        3.2292115141        2.2792015662
 H        -9.4711977433        3.7034226332       -0.6151392004
 H        -9.8875429208        4.6517289949        0.6696137259
 H       -13.6244469225        4.2076760652        1.9090682931
 H       -14.5056334107        4.4935078766        0.4751034214
 H       -15.0163155520        6.3009641972        1.8367652173
 H       -13.8901265913        7.0772069147        0.7274071494
 H       -12.2830148969        9.8498627000        4.9885490484
 H       -14.0379245253       10.4475592611        4.9441850726
 H       -11.8426254474       11.4353580729        3.0664952411
 H       -12.3100350692       12.4907715887        4.3122405930
 H       -17.5817931741       13.3888915141        2.8174363265
 H       -17.2864550104       14.9387007430        2.1042928515
 H       -16.2403116242       14.1042486048        3.4995878539
 H       -14.2086962512       15.4995546791        1.5238379553
 H       -12.7424320298       15.1103367874        2.5193250055
 H       -14.1979551511       15.0883089417        3.2935480192
 H       -13.7756822434       12.6829574769       -0.0973330196
 H       -13.0816955556       11.6581565096        0.9851993737
 H       -12.4877294450       13.2746982534        0.7709885720
 H       -15.9441406240        6.9682380727        3.5021600023
 H       -16.0232857678        8.6736784572        2.7659081221
 H       -15.8952123137        8.1867815755        4.5615102528
 H       -12.5364799505        8.0535345808        5.2039627626
 H       -13.6416226946        6.6260356522        5.2546420280
 H       -14.3646777696        8.2589264553        5.6314625005
 H       -11.6424932271        2.3559800559       -2.2660348680
 H       -11.0046679878        4.0140411906       -1.8032145880
 H       -12.7070543368        3.9595230094       -2.0482219015
 H       -13.0243569610        1.2709836283       -0.1425406624
 H       -14.3022810028        2.5029335272       -0.1309783970
 H       -13.4068255770        2.1660063245        1.3146610963
 H        -7.2663786975       -0.1838517212        3.1514356596
 H        -8.3601593556        1.0046911960        2.7984042435
 H        -6.7829064934        1.3229045868        3.5087078856
 H        -5.2265688682       -0.2839252394        1.0118211911
 H        -4.7879145236        1.2154373207        1.7575623943
 H        -5.2139398401        0.9439023960       -0.1112736395
 H        -9.9356312706       -4.8391768406       -3.0125585115
 H       -10.1666158542       -3.1862527113       -2.5082347747
 H       -10.4440433548       -4.4640265137       -1.4511141414
 H        -7.2140114922       -5.4459538911       -0.6186824085
 H        -7.3206212796       -6.0074193121       -2.0572269020
 H        -8.6599455122       -6.3304040127       -1.0835113098
 H        -7.1273825226        0.3433057843       -4.6322275525
 H        -7.1204975027       -1.1794791447       -5.1974671500
 H        -6.8956072904        0.2783732729       -6.3160018944
 H        -4.7292536379       -0.6027722173       -7.0701716320
 H        -5.1678826661       -2.1517330649       -6.3715619121
 H        -3.6442786415       -1.5011899328       -6.0795733056
 Na       -6.2500258196        1.1111722384       -2.3054272887
