117

 C        -3.5074814398        1.2814936056       -5.9466991356
 C        -4.3664423109        0.7922450654       -4.7156812545
 O        -4.4186834659        1.3081954513       -3.6502129320
 C        -5.3085559436       -0.5390352664       -5.0188807668
 C        -5.3714276312       -1.4926004759       -3.8447396009
 O        -5.4245643803       -1.1989055778       -2.6095598788
 C        -5.4462535723       -3.0344442405       -4.0986855631
 C        -6.0015443873       -3.7912035850       -2.9111989463
 C        -7.5244668645       -3.4125326822       -2.6830488199
 O        -7.9578882423       -2.4609215959       -3.3043825399
 C        -8.3405285409       -4.0647445143       -1.6391805261
 C        -8.2444457987       -3.2177032392       -0.2734738719
 O        -7.3844839298       -3.4800705353        0.5218428422
 C        -9.1680144872       -2.0333864263       -0.1189082353
 C        -8.8893877771       -0.8778251991        0.9135566427
 C        -7.6610366776       -0.1873814402        0.4790274699
 O        -7.1794922467       -0.3724817323       -0.6511484921
 C        -6.9198922484        0.9151403835        1.2753799350
 C        -7.3247143313        2.2627310108        0.5677098217
 O        -7.2115444854        2.3704124935       -0.6691124824
 C        -8.2799380959        3.3963165969        1.2515290109
 C        -9.5386517671        3.6362693079        0.4192777789
 C       -10.8090569352        2.8034623402        0.6672832930
 O       -10.9331202720        1.8463247543        1.4400812257
 C       -12.0121742417        3.2123906258       -0.1091248737
 C       -12.2559840416        4.8005540205        0.2631638143
 O       -11.5560305841        5.7046103682       -0.1274812540
 C       -13.5995307735        5.0201075066        1.0477966184
 C       -14.1515129403        6.3126615553        1.5195316896
 C       -13.3690509436        6.7970690133        2.8601338584
 O       -12.2683372759        6.3809551270        3.3065095284
 C       -14.0298253133        8.0460715924        3.6698307734
 C       -13.4603764146        9.3601395889        3.1035553275
 O       -13.3247485986        9.6345527187        1.9549394635
 C       -12.9557131157       10.2870719601        4.1111387087
 C       -12.6571072532       11.7761506337        3.5543615133
 C       -14.0396021934       12.3751419619        3.1574981617
 O       -15.0656872642       12.0321245597        3.6894078090
 C       -14.1802656471       13.3030840983        1.9699255532
 C       -15.7331286252       13.0858359335        1.6278287483
 O       -16.1250607569       12.7266697114        0.5453891876
 C       -16.6291199461       13.8360952155        2.6572390393
 C       -14.1082553993       14.7901334519        2.0861194528
 C       -13.3057817263       12.9155483959        0.7028065112
 C       -15.5456659746        8.0979790171        3.4116581937
 C       -13.6334988808        7.8138193840        5.1439194035
 C       -11.8484803714        3.3793960550       -1.6994520944
 C       -13.2275656926        2.4017382908        0.1555541155
 C        -7.4089424490        0.8024887393        2.7620260971
 C        -5.3629583383        0.7842463606        1.1205321388
 C        -9.8426407116       -4.1562302886       -2.0394738281
 C        -7.8463502904       -5.6141999303       -1.3977948932
 C        -6.7543745779       -0.0612350171       -5.3591107138
 C        -4.6576419413       -1.3503726719       -6.2164632569
 H        -4.0579691564        1.7206189262       -6.7777027695
 H        -2.7609691660        0.5099560988       -6.2707375409
 H        -2.8117533873        2.1150742179       -5.6951343892
 H        -4.4990930352       -3.3602960465       -4.4274735670
 H        -6.0750444247       -3.2455833294       -4.9942608542
 H        -5.3724685504       -3.7419956067       -1.9319734116
 H        -6.1062595925       -4.8376677197       -3.0778815277
 H       -10.2177854186       -2.4715166440        0.2695410270
 H        -9.4219490699       -1.7140277964       -1.1339013676
 H        -8.6878777076       -1.4094217483        1.9375112975
 H        -9.6950133464       -0.1552943484        0.8242053215
 H        -7.6596848807        4.2831907381        1.2675667904
 H        -8.4051693973        3.3013806426        2.2764822676
 H        -9.3840948377        3.5240126603       -0.6024764461
 H        -9.7038772296        4.6908426577        0.4947855423
 H       -13.5538937607        4.2125700627        1.8384423112
 H       -14.3192512337        4.6228924740        0.4001837976
 H       -15.2274363906        6.1936587750        1.7864991661
 H       -14.0631575551        7.0920188814        0.7476628285
 H       -12.0789476264        9.7969932973        4.6275945316
 H       -13.8087187684       10.3066358405        4.7903582133
 H       -11.9300417333       11.5881759565        2.7860120478
 H       -12.0867302449       12.5173612859        4.1752588283
 H       -17.6482780754       13.5668531503        2.7103685750
 H       -16.6773005675       14.8768324690        2.1924094939
 H       -16.2672763796       13.7691279086        3.6514412854
 H       -14.9693067493       15.2176939037        1.5000262821
 H       -13.1529232294       15.3149255286        1.8605604905
 H       -14.1358170537       15.0597117487        3.1795754666
 H       -13.9531878495       13.0196651881       -0.1507487929
 H       -13.0208509983       11.9341541308        0.6906065637
 H       -12.4979471727       13.6208610450        0.5455108591
 H       -15.8300613714        7.1747905830        3.8817600286
 H       -15.7079116935        8.4039398571        2.3880406573
 H       -15.8479926070        8.7554541220        4.1515334892
 H       -12.4948512866        7.6390892500        5.0432067789
 H       -14.0098862579        6.8445878818        5.2602367858
 H       -14.1167494360        8.5575796264        5.8364940869
 H       -11.3278290361        2.4092336074       -1.9932374935
 H       -11.1760651595        4.2451100844       -1.9041091141
 H       -12.8687565694        3.4841610607       -2.0895936470
 H       -13.3847911873        1.6837273702       -0.6587690685
 H       -14.1557557401        3.0326753000        0.0485772626
 H       -13.2690447426        1.8146833787        1.0796992116
 H        -7.6270915816       -0.1857737766        3.1844608870
 H        -8.4187950745        1.3987270773        2.9842224383
 H        -6.6255720428        1.0425911766        3.4651019292
 H        -4.9407212359       -0.1371754972        1.3786561500
 H        -4.9207657469        1.5330541821        1.7574848900
 H        -5.1732349701        0.8557563914       -0.0033034523
 H       -10.1024349175       -4.8611688866       -2.8016830517
 H       -10.3315139787       -3.2438026957       -2.3973565816
 H       -10.4323953579       -4.5250915489       -1.1760817479
 H        -6.7210209791       -5.8043666809       -1.1945733293
 H        -7.8949127448       -6.2182080438       -2.3812144398
 H        -8.3672903418       -6.1829171498       -0.7362796835
 H        -7.3927851963        0.4284616909       -4.5892693372
 H        -7.3387373932       -0.9184050200       -5.6906738494
 H        -6.5344254030        0.6641300815       -6.1187849819
 H        -4.2397509508       -0.6885664224       -6.9869856356
 H        -5.2885234474       -2.1670447987       -6.6229904247
 H        -3.7949532309       -1.9353820737       -5.8540098509
 Na       -6.2942267611        0.9786717243       -2.4187069651
