117

 C        -3.5704029683        1.4426434240       -5.7437402596
 C        -4.3547499274        0.5652154584       -4.7113488499
 O        -4.4347063104        0.8690577904       -3.5062842375
 C        -5.2225737730       -0.6469409869       -5.2958143494
 C        -5.4446318966       -1.6943432935       -3.9678858314
 O        -5.4719798192       -1.2512017317       -2.9033312215
 C        -5.5813792076       -3.1890884474       -4.0921230868
 C        -6.2365345330       -3.7636402534       -2.8733993715
 C        -7.6339730983       -3.2951621721       -2.5645845107
 O        -8.1898697675       -2.4474521653       -3.1952645526
 C        -8.4752918492       -4.1505280071       -1.3739697848
 C        -8.3396625919       -3.2350836401       -0.1297821868
 O        -7.5091717106       -3.2591683770        0.7604391972
 C        -9.4361410008       -2.0872561288       -0.0268885629
 C        -8.9486084920       -0.9799890161        0.8779228505
 C        -7.5400161198       -0.3033443525        0.5168090623
 O        -7.0787263380       -0.6036583691       -0.5302081172
 C        -6.9389526164        0.7933969726        1.4532313349
 C        -7.4469941822        2.1498201266        0.5616340846
 O        -7.1598267233        2.2646896316       -0.5964589767
 C        -8.3510561571        3.2304664473        1.2494699874
 C        -9.4702066489        3.7383239253        0.3326955340
 C       -10.6615792432        2.8772245616        0.4317192791
 O       -10.5808350867        1.8154790290        0.9674790972
 C       -11.9644488024        3.2453460010       -0.2718797262
 C       -12.3738855715        4.7517480934        0.2333948967
 O       -11.6411063106        5.7199969852        0.0869255372
 C       -13.7450432854        5.0701992300        0.9575721385
 C       -13.8928229348        6.5927279088        1.4730225254
 C       -13.3400826643        6.8011290515        2.9173424545
 O       -12.3722496234        6.2634596484        3.3738282006
 C       -13.8759983724        8.1465376667        3.7332219428
 C       -13.1627228497        9.3954105239        3.1581314260
 O       -13.3889394847        9.5799303500        1.9612855573
 C       -12.4427599641       10.5648006800        3.9202353107
 C       -12.4216048054       11.9797794549        3.1313174519
 C       -13.8880279108       12.5821720251        3.0787072527
 O       -14.7311901452       12.2420309761        3.9155691319
 C       -14.3837517889       13.4717196144        1.8108214643
 C       -15.9452793697       13.2063864278        1.3181523828
 O       -16.1963968915       12.5949351284        0.3124101298
 C       -17.0482578867       13.5518955482        2.3182526565
 C       -13.9876605722       14.9716392494        2.1755962264
 C       -13.4965825204       13.0405886898        0.5251447549
 C       -15.4236566309        8.4567764678        3.4810667625
 C       -13.7921903668        7.9016386770        5.3459520604
 C       -11.5413916578        3.3468200752       -1.7745109347
 C       -13.1672516367        2.1566988276       -0.0491865590
 C        -7.3792806560        0.8701643249        2.9472965404
 C        -5.4039463414        0.8648588352        1.3970691076
 C        -9.8789698873       -4.2775186563       -1.8000814224
 C        -7.9278089255       -5.5369910798       -0.9841164944
 C        -6.5270392053        0.1003241286       -5.5234098849
 C        -4.8012657660       -1.3012335958       -6.6054086739
 H        -4.2934515717        1.7134535548       -6.4933333741
 H        -2.7624781061        0.8904609449       -6.1958824542
 H        -3.0724002434        2.3954921390       -5.4933010984
 H        -4.4587098729       -3.4939549766       -4.2330367597
 H        -6.0504105648       -3.6387232476       -4.9965532684
 H        -5.7073919101       -3.6119162889       -1.9869104529
 H        -6.3579586280       -4.8701914833       -2.8887955360
 H       -10.3285246139       -2.4644018158        0.2531883833
 H        -9.5649539327       -1.6580658096       -1.0332754895
 H        -8.8978068130       -1.4021729671        1.8726751876
 H        -9.6815755559       -0.1171871905        0.7141830087
 H        -7.7633427896        4.0333472028        1.7750058476
 H        -8.7341358801        2.5565589029        2.1020207218
 H        -9.1160957632        3.9427901910       -0.7401528367
 H        -9.7650780369        4.7978483295        0.7241082204
 H       -13.6943351296        4.4584936705        1.8185445744
 H       -14.6615067774        4.6725257517        0.3672453671
 H       -14.9563032356        6.8318805501        1.6147297838
 H       -13.4733592204        7.4493711797        0.8731064250
 H       -11.4289825563       10.3563400244        4.1744612134
 H       -13.0121347182       10.9210293198        4.7979727922
 H       -11.8293274786       12.0662487380        2.1571186229
 H       -11.6853173281       12.4357935979        3.8261244113
 H       -17.8849943868       12.8492750907        2.2036426433
 H       -17.4583302718       14.5054833449        2.2060572964
 H       -16.6448233898       13.3999732996        3.3467274709
 H       -14.2464347126       15.6623557954        1.3821788453
 H       -12.9652026008       14.9516876888        2.5232504946
 H       -14.4367230650       15.3327563077        3.0683054686
 H       -13.6190665638       13.7404632789       -0.3627726692
 H       -13.6801352364       11.9390136321        0.1681948553
 H       -12.4255239548       13.2414263736        0.8089356066
 H       -15.8944413782        7.7082652541        4.0738233330
 H       -15.3672070494        8.4203432016        2.4134499756
 H       -15.7541730651        9.4511781981        3.9435455179
 H       -12.9828066274        7.2259578188        5.5944411604
 H       -14.7560364877        7.4386782684        5.6380111483
 H       -13.8759871664        8.8307883577        5.7232497767
 H       -10.9220279074        2.4889774049       -2.0123438286
 H       -10.9551345456        4.2256862719       -1.9027027685
 H       -12.4972205978        3.2291762006       -2.3289521249
 H       -12.7695850341        1.1395628010       -0.2936064263
 H       -14.0716168593        2.2471779139       -0.6069451673
 H       -13.3557972582        2.0569948823        1.0296717243
 H        -6.8114640750        0.2285461431        3.6534560077
 H        -8.3644611865        0.6457706738        2.9914136253
 H        -7.1786926664        1.8566984124        3.4411392642
 H        -4.8838632267        0.2347578240        2.1986819684
 H        -5.1390606981        1.9417019060        1.5623353787
 H        -5.0823518704        0.6651635407        0.3598455834
 H       -10.0705032424       -4.8986870578       -2.7151952345
 H       -10.1801339331       -3.3045001427       -2.1910206785
 H       -10.6207951552       -4.5983317268       -1.0973829229
 H        -6.8885290000       -5.5601440161       -0.9272795877
 H        -8.1166583127       -6.4242878883       -1.5276167958
 H        -8.1910237223       -5.8010265092        0.1435027737
 H        -6.9267830132        0.2558958737       -4.5428754213
 H        -7.3207502571       -0.4924547264       -6.0315985304
 H        -6.3452901151        1.1359208331       -5.9897824084
 H        -4.7545894930       -0.4630574038       -7.3429960219
 H        -5.5137445586       -2.0789972437       -6.8925307769
 H        -3.8321965256       -1.7952667648       -6.6638469162
 Na       -6.3054309925        0.7568145535       -2.1613157410
