117

 C        -3.5182471193        1.3511250292       -5.7356062765
 C        -4.3541475894        0.4422802871       -4.7671773216
 O        -4.3311998684        0.8445143210       -3.5816310955
 C        -5.2954444003       -0.6292104736       -5.2767915534
 C        -5.4250952745       -1.6986523166       -4.0564892476
 O        -5.5772644832       -1.2760664379       -2.9065189764
 C        -5.7068164399       -3.2395343710       -4.2057103004
 C        -6.2674211507       -3.9167295070       -2.8881980925
 C        -7.7229785738       -3.4338572770       -2.5173800192
 O        -8.2376964152       -2.5002481283       -3.0829618828
 C        -8.5059782375       -4.0238453061       -1.3077522930
 C        -8.4181260425       -3.0995706239       -0.0970172325
 O        -7.5695063302       -3.3005693031        0.7343527569
 C        -9.4135137340       -1.9666380647        0.0043594310
 C        -8.9593300114       -1.0286542185        1.0657136698
 C        -7.6219071938       -0.4107957409        0.6919841025
 O        -7.0216733990       -0.7595265673       -0.3520274676
 C        -7.0072533289        0.9010280827        1.3836693324
 C        -7.4904538225        2.0299083668        0.5883179492
 O        -7.1579131915        2.2991543995       -0.5406889706
 C        -8.3574000870        3.1896688915        1.3267347002
 C        -9.3998205864        3.8345263313        0.3562486565
 C       -10.5767938370        2.8999776806        0.3773406458
 O       -10.4879348233        1.7478619228        0.7852512152
 C       -11.9614613615        3.3974923204       -0.3014834589
 C       -12.4417444730        4.7266400907        0.2572689396
 O       -11.6200340133        5.6439120330        0.0801026435
 C       -13.7973443471        4.9930381487        1.0959482165
 C       -13.7646931202        6.5391454712        1.4340210045
 C       -13.3826938134        6.9426640110        2.9354674478
 O       -12.5064720703        6.2033235576        3.4507869128
 C       -13.8714734560        8.2333100892        3.6854060683
 C       -13.1361986768        9.5486571422        3.0576932121
 O       -13.2614491136        9.6273621360        1.8672975271
 C       -12.3227708832       10.5795829312        3.9060678850
 C       -12.4405381363       11.9682547864        2.9129525599
 C       -13.8952698608       12.4920417012        2.9150310434
 O       -14.5170000834       12.4521688515        3.9388315123
 C       -14.3498028738       13.4095578065        1.7822542099
 C       -15.9801680375       13.0692995447        1.4028260688
 O       -16.1168889852       12.6590712472        0.2613859086
 C       -17.2176922194       13.4984564362        2.1075205277
 C       -14.0217232511       14.8427131128        2.2597832558
 C       -13.6366619214       13.1325699110        0.4630665245
 C       -15.3813837202        8.5981175816        3.5273541014
 C       -13.6807119748        7.9896445253        5.3452246359
 C       -11.5797454066        3.4246138399       -1.8553831197
 C       -13.0000467667        2.3195311518       -0.0973477397
 C        -7.4812254603        0.8430066486        2.8459078420
 C        -5.4047145493        0.8449874330        1.3453008003
 C        -9.9655925815       -4.3207022471       -1.7672647409
 C        -7.9171944382       -5.4408914885       -0.6704234777
 C        -6.6232840668        0.0809134794       -5.5620405805
 C        -4.7853147260       -1.2152598375       -6.6871660266
 H        -4.0747691746        1.7923649986       -6.4734089367
 H        -2.5744770696        0.9863713294       -6.1004440278
 H        -3.1595709219        2.1994920303       -5.1084158660
 H        -4.8316480550       -3.8505362730       -4.5445265740
 H        -6.4531125148       -3.5026385012       -4.9804927458
 H        -5.5960305644       -3.7739006723       -1.9770567353
 H        -6.3155256143       -4.9732705799       -2.9820725730
 H       -10.3822047794       -2.5157631031        0.1761695621
 H        -9.4701820788       -1.4593578749       -0.9671921689
 H        -8.7942201379       -1.6509344760        2.0016547247
 H        -9.6264657481       -0.1772238186        1.1412625960
 H        -7.5689596206        3.9356037006        1.7370643228
 H        -8.7818072901        2.7222826782        2.2225982994
 H        -8.9584895553        3.9750983968       -0.5836713472
 H        -9.7445230865        4.9054496920        0.6980286206
 H       -14.0830861986        4.2834657546        1.8422189254
 H       -14.5451661888        4.8456010124        0.2183019694
 H       -14.6374540575        7.0482567137        1.1301286687
 H       -12.9382481475        7.0450223884        0.9109394455
 H       -11.2726400695       10.1845145359        3.7628740718
 H       -12.5574162747       10.8419523890        4.9333771874
 H       -12.0701778991       11.7928197327        1.9482348350
 H       -11.6650252161       12.6159683221        3.2622164253
 H       -18.0606301680       12.8822272931        1.8873347216
 H       -17.4548547641       14.5683694442        1.7787911626
 H       -17.0059179460       13.5034431686        3.1951046259
 H       -13.9427590800       15.5197610610        1.4568438737
 H       -13.2044415753       14.8183787010        2.9517209813
 H       -14.8197867670       15.2469657865        2.8057921662
 H       -13.8548049695       13.9274297411       -0.2811973176
 H       -14.0027143171       12.1865578057        0.1120975599
 H       -12.5275458162       13.1760548469        0.5852514341
 H       -15.9363990135        7.7389976552        3.7382553888
 H       -15.3249100330        9.0877935992        2.5450189042
 H       -15.6084248298        9.2715513537        4.3797867565
 H       -12.7096635927        7.3786978329        5.3211041532
 H       -14.4522081863        7.4371207167        5.7860360271
 H       -13.7663364209        8.9567883645        5.7997726472
 H       -11.0900955672        2.5046543825       -2.3205228825
 H       -10.9312228497        4.2388581276       -1.8323996697
 H       -12.5008871906        3.5902761479       -2.3964545378
 H       -12.4013369308        1.3935285798       -0.0647399356
 H       -13.6314182918        2.1781616306       -0.9599729260
 H       -13.5110619450        2.3153737058        0.8178218013
 H        -6.7500296788        0.3706807997        3.4150921944
 H        -8.3896923100        0.2082364035        2.8499201344
 H        -7.7418403518        1.7073788194        3.3698071252
 H        -5.1327275644        0.1484159707        2.1025355362
 H        -4.9514719278        1.8650249195        1.5545267081
 H        -4.9924704974        0.6059857115        0.2412702557
 H        -9.9895070083       -5.1513906079       -2.5129569405
 H       -10.6074136552       -3.5859247235       -2.2001448470
 H       -10.4662525334       -4.7433828773       -0.9366122310
 H        -6.9186987416       -5.3404415718       -0.2743979491
 H        -7.7669314551       -6.2582546545       -1.3389110919
 H        -8.4110112984       -5.7732838834        0.0974168372
 H        -7.1283256753        0.3881088591       -4.6888706225
 H        -7.2464471037       -0.6881027525       -6.0195436416
 H        -6.4792576202        0.9304789857       -6.2776622797
 H        -4.8773491313       -0.3295076123       -7.3172385309
 H        -5.2895590414       -2.0653302392       -7.0650002924
 H        -3.7742719292       -1.4241500393       -6.7266917749
 Na       -6.2418798830        0.6992399285       -1.9250126337
