117

 C        -3.4516091699        0.9589701043       -5.6940680365
 C        -4.3817034548        0.5399786071       -4.6762484937
 O        -4.3913359904        0.9617722670       -3.5491559134
 C        -5.3968282108       -0.6450648445       -5.2449342301
 C        -5.7313723616       -1.7585257635       -4.0549409323
 O        -5.8087045082       -1.4124893412       -2.9136649647
 C        -6.1254458599       -3.1608920748       -4.4280632750
 C        -6.4601576750       -4.0097392521       -3.1318101741
 C        -7.7615485391       -3.4607246936       -2.5063631751
 O        -8.3348212315       -2.5487172665       -3.0627214615
 C        -8.4333644453       -4.2667456919       -1.1784963368
 C        -8.5092398241       -3.1774582670       -0.0060024512
 O        -7.7235360390       -3.2156100262        0.9206464280
 C        -9.5791894353       -2.0094045346        0.0619581322
 C        -9.0320533204       -1.0617490197        1.2154946804
 C        -7.5806172232       -0.3837703410        0.8051325425
 O        -6.9981809966       -0.7825488998       -0.1251698288
 C        -7.0055200213        0.9204152457        1.5648363133
 C        -7.5778337620        2.2422167770        0.7462369503
 O        -7.2708253178        2.1830469450       -0.4503997522
 C        -8.2775930914        3.4371435073        1.3382721674
 C        -9.4344636888        3.8855401597        0.5057285768
 C       -10.5409414679        2.8856172705        0.2339880012
 O       -10.3227880343        1.7244005684        0.4435169268
 C       -11.9678171196        3.5809647892       -0.3342028672
 C       -12.1598163703        4.9559942307        0.2995526556
 O       -11.3979997506        5.8438945185       -0.0255295283
 C       -13.4768629502        5.2158047220        1.1953522928
 C       -13.8090391109        6.6107254938        1.5077718751
 C       -13.3994319453        6.9195989068        2.9377929890
 O       -12.9157502075        6.1242617237        3.6487722864
 C       -13.6985340854        8.3540314493        3.5764241934
 C       -13.1161286568        9.4145163111        2.7182163130
 O       -13.0538567080        9.3862261435        1.4914437098
 C       -12.3606311639       10.6267157241        3.5340198159
 C       -12.4367605387       11.8536343554        2.7595465728
 C       -13.7915573291       12.5788142757        2.8468644193
 O       -14.4055117754       12.4779630568        3.9146091776
 C       -14.4655219654       13.3842128169        1.6857183322
 C       -15.9301020489       12.9758499478        1.1109307775
 O       -16.1971539093       12.4781284980        0.0503498429
 C       -16.8788700569       13.5151909594        2.1677368759
 C       -14.4603773785       14.9368545533        2.3062307950
 C       -13.4981553386       13.2992169894        0.4942598301
 C       -15.2577085911        8.5448497404        3.4546392110
 C       -13.2105897182        8.4278589692        5.0778806298
 C       -11.8554183007        3.8662209877       -1.8227563888
 C       -13.0493509824        2.3258853177       -0.1747548800
 C        -7.3698708849        0.9131324232        2.9979298639
 C        -5.4375806973        0.8314979452        1.4311619139
 C        -9.9004256993       -4.4993862383       -1.6151010840
 C        -7.7600614919       -5.5155843448       -0.7857945754
 C        -6.8798617829       -0.1387789239       -5.4628129534
 C        -4.7598247698       -1.3779750186       -6.3813610985
 H        -4.0409576268        1.2969038311       -6.5951050896
 H        -2.7332272324        0.1745531916       -5.9282171950
 H        -2.7917918944        1.7866681337       -5.4332420406
 H        -5.5470059972       -3.9222124167       -4.9587863392
 H        -7.0549601806       -3.1444991795       -4.9967682518
 H        -5.5694506134       -3.9654008436       -2.5435276904
 H        -6.5689684922       -5.1337467283       -3.3827008358
 H       -10.5657712262       -2.4184088660        0.2174167405
 H        -9.5717966973       -1.4054930851       -0.8990895849
 H        -8.9946947044       -1.6540633536        2.1397106025
 H        -9.7683921528       -0.1559526319        1.2456664237
 H        -7.5121050112        4.1400062128        1.4190251313
 H        -8.6053045924        3.0597596434        2.3096341722
 H        -9.1265186051        4.3501937141       -0.4598456317
 H        -9.7401852077        4.6329193181        1.1918009080
 H       -13.1273764348        4.7824223419        2.1891843203
 H       -14.2970361337        4.6022853236        0.9307799408
 H       -14.8655858752        6.9572444788        1.4963887094
 H       -13.3018128797        7.3706819102        0.9062000852
 H       -11.3680966278       10.2573990770        3.6640354010
 H       -12.9448919433       10.8346167354        4.4717138789
 H       -12.0133241941       11.6940730358        1.7153885772
 H       -11.6100495220       12.5297168925        3.1087066248
 H       -17.8916986435       13.0202779552        2.0791843334
 H       -16.9788266918       14.5348276174        1.9434355251
 H       -16.4594312490       13.4771191209        3.1897636940
 H       -14.5568520734       15.5581089790        1.3748047946
 H       -13.4356586086       15.0961736655        2.7165072917
 H       -15.2914875027       15.3982270807        2.8816217082
 H       -13.9798562299       13.7748593045       -0.2812753645
 H       -13.2502051580       12.2713390229        0.2432687696
 H       -12.6517180482       13.8377678875        0.6710686678
 H       -15.6783007906        7.5268682088        3.4972006138
 H       -15.2842098524        9.0833979944        2.5817241148
 H       -15.5752068625        9.1294505201        4.3060750994
 H       -12.1858309427        8.5704117667        5.0615759610
 H       -13.5315196349        7.4100760016        5.5113431211
 H       -13.9002675770        9.1043409946        5.5447286802
 H       -11.8444936738        2.8848059107       -2.2459236069
 H       -10.9481596358        4.5148462347       -1.9646675677
 H       -12.8355443202        4.2352477592       -2.2510771131
 H       -12.6942304326        1.3166881956       -0.1238591717
 H       -13.7177617617        2.4010292514       -1.0272289325
 H       -13.5509189896        2.4820170408        0.8174678625
 H        -7.4367371128       -0.1928686698        3.3501528422
 H        -8.2391899374        1.4886153598        3.2050380540
 H        -6.5600987632        1.5141301084        3.5796424844
 H        -5.2903500998       -0.2140284160        1.7696554234
 H        -4.9293494666        1.5024493505        2.0444580919
 H        -5.0926656845        1.1795388248        0.5169491383
 H       -10.0024035646       -5.2864155833       -2.3352438285
 H       -10.2257024298       -3.6325270766       -2.2049698399
 H       -10.6971967308       -4.6436947725       -0.8533994690
 H        -6.8923138380       -5.4732986313       -0.1249765259
 H        -7.4288069571       -6.1114270000       -1.6525573818
 H        -8.4536618780       -6.2734686755       -0.1236431331
 H        -7.1176518368        0.4688383332       -4.5785128385
 H        -7.6427620097       -0.8685355060       -5.6931003441
 H        -6.8907006266        0.4635126506       -6.3626866393
 H        -4.5802544259       -0.8984903276       -7.3308648008
 H        -5.4884768208       -2.1828569248       -6.5819005933
 H        -3.8276063784       -1.8614642241       -6.0141197639
 Na       -5.8407850397        0.5013218564       -1.6495436045
