117

 C        -3.3941129422        0.7918633592       -5.6643027980
 C        -4.5412559737        0.3235359431       -4.6678778724
 O        -4.6413112868        0.9985565563       -3.5878369819
 C        -5.4603116969       -0.7789607459       -5.0638859799
 C        -5.8323791301       -1.7689025673       -3.8835423566
 O        -5.8719462530       -1.4670134682       -2.6927233449
 C        -6.2724757530       -3.1299106107       -4.4267951365
 C        -6.6700621799       -4.0860371876       -3.2432984820
 C        -7.8443572356       -3.4430264674       -2.4905823908
 O        -8.5277124102       -2.5423661348       -2.9583823188
 C        -8.4077840752       -4.1563493353       -1.2578314416
 C        -8.4129632723       -3.2131425597        0.1086528233
 O        -7.6770313139       -3.4952922934        1.0225035480
 C        -9.4686453938       -2.1149785723        0.1270077330
 C        -9.0444111975       -0.9288465362        1.0415714179
 C        -7.7361768165       -0.2750586213        0.8002192845
 O        -7.0328434302       -0.6700469183       -0.0832770162
 C        -6.9818759388        0.9080255654        1.6972483641
 C        -7.5204897349        2.0940446817        0.6911016545
 O        -7.2736761154        2.1067460866       -0.5078874517
 C        -8.2193335635        3.3819249386        1.3721754976
 C        -9.4438119399        4.0194704526        0.5492186142
 C       -10.5167250782        3.0183427818        0.1659538537
 O       -10.3649339119        1.8268181335        0.2252515075
 C       -11.8746115338        3.6159315644       -0.3951723226
 C       -12.0947826300        4.9572475771        0.2641052115
 O       -11.4250911474        5.9757774238        0.0158084618
 C       -13.3144126033        5.1182682352        1.2528373085
 C       -13.7275630234        6.5413603176        1.5216579054
 C       -13.4483202510        6.8869587840        3.0264820819
 O       -13.0471380539        5.9864513471        3.7534993675
 C       -13.6480676990        8.3180234245        3.5709044087
 C       -13.0097515692        9.3451809324        2.5210417710
 O       -12.9556787299        9.2661196588        1.2918873469
 C       -12.3294345415       10.7310633614        3.2942861107
 C       -12.4096585675       12.0554238403        2.6374977930
 C       -13.8834962686       12.6590372038        2.7293751314
 O       -14.4534142336       12.4330415924        3.7851638757
 C       -14.3568797888       13.5657996861        1.5514603851
 C       -15.8831951836       13.0049693489        1.2322063632
 O       -16.1041755140       12.4109705885        0.1839366485
 C       -16.9703544060       13.3542051571        2.2264080767
 C       -14.5066207973       14.9351097471        2.0504465518
 C       -13.3177734177       13.5139652479        0.4203078142
 C       -15.2573999504        8.4718349870        3.4679447836
 C       -13.1237669174        8.5483013701        5.0207741499
 C       -11.8319111579        3.9065680047       -1.9017624374
 C       -13.0179086540        2.6431790612       -0.0571148354
 C        -7.3896425035        1.0062916165        3.2342877347
 C        -5.4115703246        0.8670792506        1.5527145642
 C        -9.9111199712       -4.5430105846       -1.5934129191
 C        -7.6768748734       -5.4818826589       -0.9238717560
 C        -6.8135750398       -0.0985068900       -5.4734719710
 C        -4.9192033696       -1.5440389757       -6.2690797691
 H        -3.7206888936        1.2215107063       -6.5570507742
 H        -2.5374526642        0.1194015639       -5.8275056081
 H        -2.8473777724        1.6733798622       -5.1391178226
 H        -5.6722859205       -3.8677949626       -5.0115013195
 H        -7.1909510074       -3.0413240180       -4.9861268132
 H        -5.7669596591       -4.1666221293       -2.6999285222
 H        -6.9259312281       -5.1325721734       -3.5446170183
 H       -10.3525319693       -2.4426283386        0.5423626254
 H        -9.6062443765       -1.8557750361       -0.9119789131
 H        -9.0546359405       -1.4172614332        2.0368838200
 H        -9.9546364822       -0.2883784076        0.8982958894
 H        -7.3020370066        3.9637856743        1.3199421552
 H        -8.5295047876        3.0770157338        2.4028132244
 H        -9.1808935377        4.4909126577       -0.4233892980
 H        -9.7605142810        4.8287836981        1.3891100918
 H       -13.1573530361        4.4995497099        2.0802211312
 H       -14.2260413743        4.6368455981        0.6809848108
 H       -14.8234288059        6.6932296502        1.4839070481
 H       -13.3175334812        7.2917701343        0.7315636610
 H       -11.3593898466       10.4438286109        3.5859558544
 H       -13.0457802758       10.9215412373        4.1291172421
 H       -11.8598248091       11.9466732373        1.6410733136
 H       -11.7925403520       12.9377054952        3.0253336148
 H       -17.8892408104       12.9108442346        1.9505628339
 H       -17.0366559924       14.4193406679        2.2581672875
 H       -16.6364086961       13.1034470399        3.2464226983
 H       -15.3355967215       15.5580561860        1.5660285479
 H       -13.5088260863       15.5247651842        2.0460571468
 H       -14.9799909933       14.8514756718        3.0231123536
 H       -13.7242893223       14.2272027915       -0.3270015761
 H       -13.0989603548       12.5068052243        0.0601731717
 H       -12.3646547481       13.9598367435        0.7733809160
 H       -15.5351483275        7.5944825964        3.9682594323
 H       -15.4900248737        8.5921087531        2.3978075580
 H       -15.4439892141        9.4147371597        4.1170235378
 H       -12.0851546306        9.0033486110        5.0239216907
 H       -13.1749235750        7.5790348373        5.4630485688
 H       -13.8523957539        9.1178531845        5.4510143603
 H       -11.8799211579        2.9774092446       -2.5072922684
 H       -11.0933528211        4.5953497759       -2.0172186510
 H       -12.8653861915        4.2956821416       -2.1386531539
 H       -12.8268347985        1.5851804608       -0.4260876356
 H       -13.8795549830        3.0213166228       -0.6192272303
 H       -13.1566444423        2.5754293679        1.0204129675
 H        -7.9443255489        0.0496562835        3.3737468126
 H        -7.9599420739        1.9154947054        3.5159030528
 H        -6.5251762509        1.0831800789        3.9238315855
 H        -5.1267662471       -0.1192781720        1.6213902958
 H        -5.0048434660        1.4145730240        2.3533953523
 H        -5.0369861754        1.6285561217        0.7727461043
 H        -9.6995455177       -5.4161905342       -2.3237445396
 H       -10.6518830506       -3.9406720548       -2.1173593982
 H       -10.4252837441       -4.9622534772       -0.7543310011
 H        -6.6844195237       -5.2988214679       -0.3484188113
 H        -7.3668860792       -6.2129228383       -1.7969207487
 H        -8.1335829698       -6.0817678793       -0.2338767911
 H        -7.1759177374        0.5162183666       -4.7021586760
 H        -7.5623054125       -0.8008369411       -5.8880606922
 H        -6.5910155276        0.4970265722       -6.4400113338
 H        -4.6592433461       -0.8074572101       -7.1577441376
 H        -5.7578705905       -2.1495863796       -6.7474355139
 H        -4.0202500365       -2.1306827950       -6.0289824694
 Na       -5.6448626081        0.4387246929       -1.5542702002
