117

 C        -3.3900075986        0.5420949047       -5.2173607434
 C        -4.6424156890        0.2742172894       -4.5347734956
 O        -4.9154948045        0.9735429460       -3.6157619451
 C        -5.6019684619       -0.7987374191       -5.0617374136
 C        -5.9404903347       -1.9658703761       -3.8582465051
 O        -5.7967298645       -1.5641640464       -2.7392058242
 C        -6.4554320155       -3.2638048437       -4.4615797002
 C        -7.0795477410       -4.1666265342       -3.3088372061
 C        -8.1511254203       -3.4146369390       -2.3913868750
 O        -8.7826117379       -2.4304027096       -2.7228096199
 C        -8.5102704290       -4.3153703324       -1.0979011732
 C        -8.3849465155       -3.3939725683        0.2128869800
 O        -7.6129849051       -3.7549390167        1.0938250999
 C        -9.3052357571       -2.1499654038        0.1161460730
 C        -8.9699922274       -0.9597566419        1.2014454595
 C        -7.6078338318       -0.3011248167        0.8511916932
 O        -6.9272984487       -0.7292805763       -0.0888624633
 C        -7.0774487707        0.8793582418        1.6783464432
 C        -7.6075187575        2.1403138544        0.7283289732
 O        -7.1379414871        2.1421120064       -0.3807766054
 C        -8.3196316871        3.3641313552        1.3006944884
 C        -9.2313649210        4.0856186873        0.4013471757
 C       -10.3808599026        3.2037115270        0.0035960948
 O       -10.2135732674        1.9991596826       -0.0490132710
 C       -11.7958002131        3.7166139038       -0.4789073442
 C       -12.1787433497        5.1170138120        0.2816851948
 O       -11.5036783810        6.0789677367        0.0716002199
 C       -13.3466710231        5.1773635993        1.1931178787
 C       -13.6672153872        6.5672070097        1.6410078684
 C       -13.4534236378        6.8893367165        3.1642840048
 O       -13.1663832539        6.0588294230        3.9485792577
 C       -13.6033734319        8.3267043788        3.6126157138
 C       -12.8337887373        9.4022660233        2.5037026121
 O       -12.8190748179        9.3341275277        1.2958229233
 C       -12.2740058109       10.6597463352        3.2085602126
 C       -12.4394010425       11.9935475646        2.2671694855
 C       -13.7534792472       12.8217981896        2.4324777783
 O       -14.4664981568       12.4662462895        3.3778667958
 C       -14.4490314850       13.8411702755        1.4900082257
 C       -15.7573263028       12.9326779427        1.1253174006
 O       -15.7398479087       12.1442376228        0.2085307028
 C       -16.8888705354       13.1025288853        2.2187057020
 C       -14.5207914290       15.3958160827        2.0716853159
 C       -13.7745038009       13.9233949037        0.0602700121
 C       -15.1215442260        8.6723319665        3.4589851822
 C       -12.9713178236        8.4948430318        5.0294626248
 C       -11.6130419186        3.9162342726       -2.0324607560
 C       -12.7438334613        2.5955833746       -0.2412195658
 C        -7.7352868746        0.9147254126        3.0587584663
 C        -5.3927963024        0.8784883708        1.7350895380
 C       -10.0059979340       -4.8229698131       -1.2517878716
 C        -7.5572222264       -5.4664681821       -0.8824112323
 C        -6.8725071797        0.0186462018       -5.4572759160
 C        -5.1083140643       -1.6286498303       -6.1909070228
 H        -3.6661654650        0.8191905417       -6.2809011443
 H        -2.8440989998       -0.3655994309       -5.3218357605
 H        -2.7038460318        1.2404855216       -4.8996453012
 H        -5.7222111979       -3.8630207422       -4.9133046822
 H        -7.2680266655       -3.2605353671       -5.1743406613
 H        -6.2240890063       -4.5333031705       -2.7106748360
 H        -7.6318215711       -5.0122589951       -3.7037669687
 H       -10.4263605906       -2.3739135802        0.2665683638
 H        -9.1058556607       -1.8204695637       -0.9353624630
 H        -9.0143955862       -1.5065485424        2.1566264018
 H        -9.9094277106       -0.3967219181        1.1548690407
 H        -7.4192622340        3.9743449421        1.4481397987
 H        -8.8321938508        2.9478187869        2.1602468448
 H        -8.7219768515        4.2709439569       -0.5510688014
 H        -9.3958615091        4.9097164060        0.9182837462
 H       -13.0101334693        4.4010339230        1.9513924547
 H       -14.1371007881        4.7583033308        0.7289883880
 H       -14.6991076316        6.8190621271        1.4238894054
 H       -13.1493176152        7.2946152399        1.0907983622
 H       -11.1542556695       10.3702003303        3.2131741671
 H       -12.6712814739       10.9158765623        4.1906751733
 H       -12.1198270119       11.7475075977        1.2623100172
 H       -11.7682587220       12.7787496255        2.4568061249
 H       -17.8511363063       12.7625824307        1.7434990706
 H       -16.9935259205       14.1284106960        2.5742332600
 H       -16.5876304310       12.6096771942        3.1262141332
 H       -15.4028539266       15.9214005964        1.8653412863
 H       -13.7549686965       15.8868956564        1.5823627534
 H       -14.4640988693       15.4660191790        3.1586802291
 H       -14.1708134038       14.8024347705       -0.4847259565
 H       -13.9295454495       12.9096184539       -0.4498686114
 H       -12.6716042682       13.9385062414        0.1635743989
 H       -15.4585614656        8.3993079583        4.4988887522
 H       -15.5875913626        8.0270389679        2.6886993812
 H       -15.0782671368        9.6806963907        3.2009664745
 H       -11.9339752314        8.2374435888        4.9764241046
 H       -13.5812887518        7.7482168129        5.7034509458
 H       -13.0985926074        9.5924018133        5.3179981170
 H       -11.4005629359        2.9564315924       -2.4225367564
 H       -10.9394916304        4.7951720045       -2.3607605631
 H       -12.6391219136        4.0877815938       -2.3847787057
 H       -12.4683764694        1.7837743361       -0.8644201726
 H       -13.8108205676        2.8612501317       -0.3860903353
 H       -12.5755748640        2.2657060996        0.8188206782
 H        -8.7457635889        1.1865213180        2.8539562402
 H        -7.1762587292        1.5817672126        3.6049821964
 H        -7.5922495189        0.0096093480        3.6216092431
 H        -5.1022001841       -0.2364769040        1.7746757983
 H        -4.9084976705        1.4723088664        2.5627647761
 H        -5.1109466866        1.4518675457        0.9428055111
 H       -10.3361770677       -5.2542710699       -2.1420629586
 H       -10.6520855037       -3.9576872132       -1.0998039704
 H       -10.3179193973       -5.3834905503       -0.3401692091
 H        -6.5739787098       -5.3535751000       -0.8838495157
 H        -7.7891363165       -6.2120344818       -1.5126243324
 H        -7.7466981722       -6.0116382267        0.1208096451
 H        -7.2847353410        0.5619819084       -4.5516776041
 H        -7.5873014652       -0.6502728711       -5.9139897450
 H        -6.6889402635        0.6783771360       -6.2387827575
 H        -4.7178021032       -1.0346066237       -6.9364635179
 H        -5.8736525774       -2.1746147827       -6.6741253924
 H        -4.2508746304       -2.2105237348       -5.8366786393
 Na       -5.5129955527        0.4968363254       -1.3603374776
