117

 C        -3.2541126773        0.3474570510       -5.0835681122
 C        -4.6851143133        0.2934020700       -4.4256508894
 O        -4.9846090218        0.9629300620       -3.4366341635
 C        -5.7221260954       -0.7976843141       -5.0658845017
 C        -6.0333419283       -1.8607420791       -3.9819181261
 O        -5.7573904884       -1.6962311562       -2.8124485226
 C        -6.6584982503       -3.1378172652       -4.4278785096
 C        -7.2234421718       -4.1331641838       -3.3080594309
 C        -8.2601635948       -3.6052917732       -2.3551555502
 O        -8.7735994256       -2.5380285727       -2.5702674477
 C        -8.6040803189       -4.3668483874       -0.9764838119
 C        -8.4286969372       -3.3342219373        0.1652026173
 O        -7.7433079450       -3.5552762797        1.1616607979
 C        -9.3486037824       -2.1854898769        0.2073001856
 C        -8.6994449820       -1.2656020050        1.2808710779
 C        -7.5289625754       -0.4871484441        0.8125036091
 O        -6.8259190674       -0.8676571494       -0.0453080503
 C        -7.1212652282        0.9131884369        1.6190927701
 C        -7.4039443164        2.2026541154        0.7421931808
 O        -7.0562758830        2.3297431542       -0.4201528343
 C        -8.2974027232        3.4328735577        1.3918456627
 C        -9.0948297893        4.1451969169        0.1747075282
 C       -10.2317754105        3.1898500986       -0.1335406503
 O       -10.0191085307        2.0179635255       -0.0699425098
 C       -11.7103338477        3.6271054901       -0.5637144312
 C       -12.0952565091        5.0329022916        0.2343349381
 O       -11.4378772091        6.0451587711       -0.0212961858
 C       -13.4489662291        5.1552080044        1.2162350374
 C       -13.7108085525        6.6022895391        1.6181545188
 C       -13.4232321154        6.8930734543        3.0563277987
 O       -13.1394427726        6.0563233432        3.8778779342
 C       -13.4999636392        8.5758291094        3.6038079062
 C       -12.7843584559        9.5514121969        2.6635306868
 O       -12.8487608333        9.2218574891        1.4404847290
 C       -12.2698911031       10.9497088158        3.1084846141
 C       -12.4525674187       11.9571553801        1.8809405016
 C       -13.7375387181       12.7688649820        2.3779666586
 O       -14.2986215207       12.5049349197        3.4549592640
 C       -14.4303772966       13.8031215331        1.3214049434
 C       -15.7365012407       13.0553308366        1.0770351202
 O       -15.6732041636       12.1052590212        0.3083357592
 C       -16.8919673455       13.0366637811        2.0672381890
 C       -14.5549178732       15.0618677454        2.0696237614
 C       -13.8444374522       14.1798476026       -0.1151817999
 C       -15.0724440417        9.0184248929        3.5995383545
 C       -12.9628045429        8.5546878454        5.1128802293
 C       -11.5635982466        4.0899961805       -2.0019693288
 C       -12.7203396814        2.4697119082       -0.4229342086
 C        -7.8645860021        0.8993769578        3.0340859661
 C        -5.6209389857        0.8594300544        1.8662135473
 C       -10.0225369765       -4.9270923913       -1.0002448729
 C        -7.7041968147       -5.6102029208       -0.7827681101
 C        -7.0926948108       -0.1027931853       -5.3912985119
 C        -5.0302580913       -1.5020098125       -6.3362471492
 H        -3.2622625447        0.7113083380       -6.0937093687
 H        -2.7064228402       -0.5780678872       -5.1185230440
 H        -2.4973234924        1.0641117847       -4.6092507704
 H        -5.8516017265       -3.7466609871       -4.8915525360
 H        -7.4464052565       -3.2759522099       -5.1173162524
 H        -6.3994433226       -4.4509505451       -2.7167408406
 H        -7.6861712780       -5.0649723906       -3.8260336486
 H       -10.3618909950       -2.4300256622        0.5373504271
 H        -9.3627462458       -1.6016920563       -0.8316823329
 H        -8.6117646463       -1.8954940330        2.1514227780
 H        -9.6847380898       -0.6663332792        1.4034069096
 H        -7.6249608211        4.0211579301        1.8608560810
 H        -9.0292979848        2.8297104462        1.8950245338
 H        -8.4521248161        4.1981822495       -0.6225757597
 H        -9.3932090566        5.1545769608        0.5841675453
 H       -13.1682392447        4.6323837361        2.1787538642
 H       -14.3296812266        4.6288347996        0.8005824447
 H       -14.7355349536        6.8983419530        1.4913381848
 H       -13.2089789374        7.3715601717        1.1146811270
 H       -11.2682648045       10.9768434205        3.5291221238
 H       -13.0161726865       11.3893435678        3.8465196575
 H       -12.5655855088       11.5668105763        0.8231168335
 H       -11.6506434714       12.6264655318        1.7138446324
 H       -17.8110777045       12.8012986724        1.4737159296
 H       -16.9919382071       13.9973840026        2.5201833545
 H       -16.6362691366       12.4191977992        2.9922815214
 H       -15.4346006291       15.5889556937        1.7012073103
 H       -13.7595870487       15.7356287718        1.8974480396
 H       -14.7417180250       14.8725968731        3.0647166657
 H       -14.4609332968       14.9106442647       -0.5620096632
 H       -13.8144167325       13.2261886723       -0.6334411642
 H       -12.8516900385       14.4279208794       -0.0311691457
 H       -15.4873814650        8.6843075878        4.4881712191
 H       -15.4266824058        8.3627014935        2.8575804256
 H       -15.0682214842       10.0511398581        3.2492540315
 H       -11.9940315010        7.9651881218        5.2548955120
 H       -13.8363157129        8.0624734000        5.6370550301
 H       -12.7567416944        9.5273460916        5.3554927187
 H       -11.0457165833        3.1569571822       -2.3908618654
 H       -11.0153844664        5.0215921458       -2.1054203338
 H       -12.5989834625        4.1169251719       -2.5402578877
 H       -12.1713474877        1.5787924165       -0.7350444226
 H       -13.5968328243        2.6349459863       -1.0156454010
 H       -13.0327880183        2.3380506624        0.6393345492
 H        -8.5459909722        1.7475856896        3.0505096847
 H        -7.0995886372        0.8690496512        3.7529309409
 H        -8.3468297423       -0.0763258959        3.2379028517
 H        -5.3870973837       -0.1611896117        2.1623554532
 H        -5.3112301301        1.5491193103        2.5969539529
 H        -5.1423413580        1.2949451067        0.9333717898
 H       -10.2596808379       -5.5095512792       -1.8874051562
 H       -10.8059296903       -4.2249211601       -0.8840664117
 H       -10.1459279934       -5.4781789327       -0.1080870498
 H        -6.5849628662       -5.4842715463       -0.6402399265
 H        -7.8010658461       -6.4196028448       -1.5985165167
 H        -7.9738470760       -6.2049803815        0.0215482331
 H        -7.3571952980        0.4581760525       -4.5629174034
 H        -7.8900290494       -0.6941139091       -5.7767620792
 H        -6.8416753387        0.6099850979       -6.1889851046
 H        -4.7246466166       -0.7888700911       -7.0945870129
 H        -5.7420140213       -2.1077360027       -6.7755707872
 H        -4.1864149663       -2.0042600894       -6.0835659332
 Na       -5.5955620318        0.5193663947       -1.3468977968
