117

 C        -3.2513811624        0.1369364012       -4.6546562375
 C        -4.6602690435        0.1902914446       -4.2424163710
 O        -5.1201652062        0.8760468002       -3.3920486994
 C        -5.8256280199       -0.8838170674       -5.0114433981
 C        -6.0851276859       -2.0167750027       -3.9685417707
 O        -5.8064883258       -1.8013937943       -2.8265535977
 C        -7.0634624711       -3.0504392817       -4.2373670084
 C        -7.2412141175       -4.1490755091       -3.1961052154
 C        -8.3625856720       -3.7886945290       -2.1775110915
 O        -8.9812269151       -2.7857718404       -2.4610910285
 C        -8.6865439270       -4.5237517589       -0.8896860530
 C        -8.4688081213       -3.5782408087        0.2949193260
 O        -7.5983756333       -3.8197774154        1.0946978346
 C        -9.3168622655       -2.3640362937        0.3748087453
 C        -8.8662403408       -1.1635032705        1.3747867996
 C        -7.5935102044       -0.4244773394        1.0648346234
 O        -6.8644994730       -0.8022536026        0.1194360124
 C        -7.2077866238        0.9454151949        1.7594617768
 C        -7.3868452075        2.2593907855        0.7709878359
 O        -6.6771803687        2.2184137240       -0.2255686622
 C        -8.0837593272        3.5425163052        1.1191346748
 C        -9.0605604893        4.0793015922        0.0801733439
 C       -10.1920166005        3.1679132688       -0.2525794959
 O        -9.9193485034        1.9436261263       -0.1376006478
 C       -11.5258595823        3.6841264044       -0.6806801560
 C       -12.0608984999        5.0883459859        0.2513103317
 O       -11.3089579259        6.0050250955        0.0838129532
 C       -13.2376414499        5.1160458849        1.2201580002
 C       -13.6955969418        6.5597383754        1.5173566550
 C       -13.4213169660        7.0716387258        3.0328902580
 O       -12.9740389820        6.2969059762        3.7964341169
 C       -13.4548690055        8.7152486583        3.5435378861
 C       -12.5873237188        9.4986547534        2.4963633879
 O       -12.6607880797        9.0935369708        1.3861783132
 C       -11.9677004358       10.8593963020        2.7653363238
 C       -12.4878074711       11.8600504598        1.6347390290
 C       -13.6780181185       12.8572507079        2.2212896471
 O       -13.9030689580       12.8991854863        3.4036473658
 C       -14.6214214670       13.7761679446        1.2196057997
 C       -15.8119356869       12.8862620376        0.8591525682
 O       -15.7787039807       11.9283872580        0.1097383092
 C       -17.0798458821       13.1257583712        1.7506147451
 C       -14.9110053338       15.1058879012        2.1303459176
 C       -13.7345107930       14.1993411030        0.0227787680
 C       -14.9275219967        9.3830644302        3.7645431358
 C       -12.8473018093        8.6561831357        5.0688933382
 C       -11.4454294133        4.2556681924       -2.1285137779
 C       -12.5466793181        2.5209375794       -0.6330041042
 C        -8.0111480036        1.1258799169        3.0463752264
 C        -5.6147123874        0.9447014016        1.9723126848
 C       -10.2002212164       -5.0017557446       -0.8960458506
 C        -7.7512176001       -5.6689731413       -0.6672995166
 C        -7.1252790710       -0.0334819642       -5.2958568755
 C        -5.3094792445       -1.2452378552       -6.4438150713
 H        -3.0008518076        0.2769282338       -5.7591438247
 H        -2.8963237118       -0.9242542429       -4.5567194652
 H        -2.6444223296        0.7515682962       -4.0720500465
 H        -6.9357331767       -3.5604501644       -5.1903548907
 H        -8.1171165168       -2.6632372825       -4.2715113240
 H        -6.1530860319       -4.1885964396       -2.8762713686
 H        -7.5325983005       -5.0699836315       -3.5775965523
 H       -10.2744809852       -2.8355981095        0.5648917354
 H        -9.3696683367       -1.8313533374       -0.4767112554
 H        -8.7106760961       -1.7112200435        2.3388553796
 H        -9.7235545462       -0.5886791349        1.5355815059
 H        -7.1797051915        4.2278792632        0.9965421917
 H        -8.5971319703        3.2572797602        2.0110734033
 H        -8.3166683614        4.2659438978       -0.8373456867
 H        -9.3364574683        4.9781096089        0.5359480727
 H       -13.0834921630        4.6382070273        2.2187193269
 H       -14.0317752944        4.5532722013        0.7384153681
 H       -14.6852171122        6.7640298944        1.0202072588
 H       -12.9773282828        7.3238831519        1.0328225944
 H       -10.8654658380       10.9598475988        2.7824100764
 H       -12.3610657003       11.1822591425        3.6915079865
 H       -13.1256074426       11.4166616085        0.8335386969
 H       -11.5657408443       12.1958762941        1.0124644671
 H       -17.9143200879       12.5456586957        1.4022450108
 H       -17.3896649434       14.1359158283        2.0577250306
 H       -16.6530224714       12.7524677572        2.6196281194
 H       -15.2069192015       16.0251516925        1.5574279032
 H       -13.9182713699       15.4164954225        2.5898791564
 H       -15.6121252937       14.8790524916        3.0415419366
 H       -14.4417791894       14.6644673174       -0.6375343204
 H       -13.2576854762       13.3737125473       -0.5269995482
 H       -12.9178654549       14.8363754415        0.3419524327
 H       -15.5379908967        8.4690246840        3.9558458606
 H       -15.2820964848        9.6947857470        2.7771329218
 H       -14.6819696248       10.1577501165        4.3938168380
 H       -11.9786743902        8.1372375621        4.9495954064
 H       -13.4885339326        7.9687682721        5.6969151383
 H       -12.4575385816        9.6312573928        5.4388944523
 H       -11.0046085139        3.5086896237       -2.7592821490
 H       -10.7810185861        5.1836888250       -1.9454853197
 H       -12.3931963671        4.6445112303       -2.3760481213
 H       -11.9314937020        1.6422748956       -0.4643326551
 H       -13.0785790869        2.3931165167       -1.6078577953
 H       -13.3927513435        2.6850257866        0.0505363368
 H        -7.3647761156        1.8758746334        3.5596171232
 H        -8.1597116183        0.1417702086        3.5248256510
 H        -9.0262996948        1.5168538373        2.7886137299
 H        -5.2905368451        0.3360540499        2.8686528699
 H        -5.3669333648        2.0303351805        2.1663986026
 H        -5.1538570458        0.6534827094        1.0877978686
 H       -10.3142813937       -5.9286819025       -1.4330542024
 H       -10.8117723130       -4.2468236633       -1.4451244829
 H       -10.6978375954       -5.0833800913        0.1172315024
 H        -6.7806150644       -5.4050297254       -0.4200065243
 H        -7.6840450996       -6.4392099072       -1.3660412589
 H        -8.1677494447       -6.3391514268        0.2509320846
 H        -7.4771870411        0.3814968329       -4.2633516567
 H        -7.9305556710       -0.6998190185       -5.6560168698
 H        -7.0112484018        0.8194662866       -5.9521892413
 H        -5.1838969399       -0.2997340929       -6.9786847524
 H        -6.0269180832       -1.9296741859       -7.0083524978
 H        -4.2158616882       -1.6744547217       -6.4188399035
 Na       -5.9512189712        0.4947710764       -1.4455880824
