117

 C        -3.3537386117       -0.0531156740       -4.5384890931
 C        -4.7770832389        0.1014473707       -4.2562268627
 O        -5.1605019682        0.9052170223       -3.4424966113
 C        -5.8075733774       -0.7436927403       -4.9679727611
 C        -6.2319407347       -1.9349968573       -3.8876045776
 O        -5.7712438530       -1.8160277126       -2.7965755138
 C        -7.1910293876       -3.0652773006       -4.2939140283
 C        -7.2155633122       -4.1517656180       -3.0579946188
 C        -8.4685245619       -3.7529895336       -2.1757548554
 O        -9.2372514048       -2.8489060411       -2.4974758696
 C        -8.6217635229       -4.5901029625       -0.8686701213
 C        -8.3518229782       -3.5747384455        0.4520718723
 O        -7.4642835074       -3.9032959294        1.2154329153
 C        -9.3114035389       -2.3629829598        0.4716620132
 C        -8.9502421944       -1.1597609746        1.4271092900
 C        -7.7058758406       -0.3635064641        1.0740077007
 O        -7.0117764561       -0.7584051149        0.1911711357
 C        -7.2303948242        1.0647869605        1.8585477490
 C        -7.2395462267        2.2188445373        0.7274799390
 O        -6.6493750779        2.1247627786       -0.2968736827
 C        -7.9178765784        3.6342182128        1.1257618707
 C        -8.9586577140        4.1557795135        0.0670283087
 C       -10.1402152301        3.1406914390       -0.1955522950
 O       -10.0377550183        1.9445322109       -0.1611645300
 C       -11.5686138585        3.8555273963       -0.6416671133
 C       -11.9202892106        5.0713648965        0.2767469617
 O       -11.2173097527        6.0806241166        0.2105848428
 C       -13.1620395304        5.1497927888        1.2573678772
 C       -13.5902761663        6.5971220238        1.6027694698
 C       -13.3301866605        7.0745818028        2.9696836780
 O       -12.9223953541        6.3103455290        3.8396614562
 C       -13.3780728581        8.5799520198        3.3913401126
 C       -12.7006766295        9.4663594287        2.3236482942
 O       -12.4436823644        9.0110792752        1.1807752505
 C       -12.0554650312       10.9306519923        2.6346649383
 C       -12.6378387256       12.0177325910        1.6269328470
 C       -13.6724586006       12.8379183015        2.3018689497
 O       -13.6645735179       12.9085694749        3.5441804278
 C       -14.5037634219       13.7591869909        1.3501352042
 C       -15.8254810737       12.8720645994        0.8978125704
 O       -15.7241136145       12.0500519828        0.0161749597
 C       -17.2195580342       13.0993099491        1.5679664491
 C       -15.0105595023       15.0014805853        1.9134597027
 C       -13.7327530098       14.1750798081        0.0391464960
 C       -14.8038193031        9.2901548611        3.6150778733
 C       -12.6706795283        8.6960339342        4.7997483017
 C       -11.3598111571        4.2553245792       -2.1097757863
 C       -12.6598432108        2.5414591909       -0.7223761797
 C        -8.0474024818        1.3381984373        3.1148816610
 C        -5.6378973036        0.9559472962        2.1160523285
 C       -10.2008692516       -5.0076547508       -0.9848030712
 C        -7.7758963012       -5.8612538318       -0.6515726550
 C        -7.0637962345        0.0934334259       -5.0785798506
 C        -5.3743255984       -1.3335541947       -6.3695808963
 H        -3.1938049920        0.1338994898       -5.6169399566
 H        -2.9286236506       -1.0126908763       -4.5072248065
 H        -2.7455030869        0.6783383125       -3.9622603474
 H        -6.9294411101       -3.5487623074       -5.1990235335
 H        -8.2195587849       -2.7553746903       -4.4216886240
 H        -6.2184992399       -4.0054689083       -2.7267546667
 H        -7.3953498686       -5.1982661419       -3.2763425509
 H       -10.2504437672       -2.8632481595        0.6851344612
 H        -9.3846841317       -1.7336719317       -0.4956981433
 H        -9.0742442925       -1.5609710553        2.4263364896
 H        -9.8964496379       -0.4703914292        1.3957338413
 H        -7.0329077011        4.2491897387        1.1469302595
 H        -8.5345139625        3.3451571549        1.9934931009
 H        -8.4260555085        4.2386276424       -0.8684263412
 H        -9.2458153304        5.1005805745        0.4478341424
 H       -12.7239253634        4.8407765295        2.2597664614
 H       -13.9389307101        4.5254660645        1.0719318214
 H       -14.7295810474        6.6762706800        1.4934688807
 H       -13.2170002161        7.3285737185        0.8950990484
 H       -10.9662486765       10.7760821563        2.3399915979
 H       -12.1188517108       11.2054391276        3.7004940068
 H       -12.7424028872       11.7256418304        0.5531543990
 H       -11.8854800403       12.8077746749        1.5078279642
 H       -17.8031601059       12.2359756909        1.2056713414
 H       -17.7156848661       13.9494609661        1.2446011262
 H       -17.1098068159       13.2017328028        2.6290810220
 H       -15.4550011070       15.5802936199        1.0607618911
 H       -14.1910167069       15.6798454645        2.2641004882
 H       -15.6768623463       14.8513615151        2.7711624893
 H       -14.5053383549       14.6873672286       -0.6109322798
 H       -13.3832709983       13.2292005517       -0.5554757030
 H       -12.7961560041       14.7450540303        0.2358396330
 H       -15.4961480111        8.4698605933        3.4000173604
 H       -14.9319450878        9.8994883420        2.7323533197
 H       -14.6645601413        9.8888681174        4.5194578138
 H       -11.6049219653        8.3609633010        4.7406319319
 H       -13.2365079183        7.9149938937        5.4797681745
 H       -12.5691313672        9.7188073836        5.0967247067
 H       -11.0274988264        3.3914626488       -2.6013931034
 H       -10.5847970659        5.0164350245       -2.0861516134
 H       -12.2546369641        4.8071149933       -2.4097585265
 H       -12.0418560018        1.7032811967       -0.5089396673
 H       -13.1871575444        2.3719398493       -1.6798541724
 H       -13.5157630931        2.7243542982       -0.0286240836
 H        -7.3719450873        1.4704550409        3.9579159609
 H        -8.6692305109        0.5199445767        3.2458154677
 H        -8.7359568352        2.1919211610        2.9389573181
 H        -5.4124209456        0.3319780268        3.0597848594
 H        -5.2268804052        1.9944492916        2.2665604310
 H        -5.2549524711        0.4107111452        1.2548975038
 H       -10.4335769659       -5.9562253630       -1.4861031803
 H       -10.7018234480       -4.1787030217       -1.5521579752
 H       -10.7598482958       -5.0212430288        0.0117273097
 H        -6.7389176447       -5.7173668842       -0.7201982371
 H        -7.9884703750       -6.5511272563       -1.4124836844
 H        -7.9466763273       -6.4561886760        0.1692432533
 H        -7.4938212233        0.2610187223       -4.0616967694
 H        -7.7924814129       -0.6135738630       -5.5695797364
 H        -7.0162980473        1.1038585836       -5.5401050030
 H        -5.1472850628       -0.5342185650       -7.1364964194
 H        -6.1954768915       -2.0250917978       -6.7189773824
 H        -4.4265551400       -1.9085484785       -6.2472914672
 Na       -6.1076417405        0.3529094519       -1.5330766850
