117

 C        -3.4849334685       -0.5446196621       -4.5446954066
 C        -4.8696141197       -0.1216962174       -4.1584588504
 O        -5.0235068577        0.9091617770       -3.4303226726
 C        -6.1174272241       -0.7350880050       -4.6785805579
 C        -6.4343371125       -1.9702258811       -3.6188244933
 O        -6.0285108011       -1.9050538436       -2.4336256512
 C        -7.1313463741       -3.1986708049       -4.0812274493
 C        -7.4066568143       -4.2120336974       -2.8794464341
 C        -8.6693269426       -3.7328917043       -2.0698837441
 O        -9.5268006493       -2.9794328900       -2.4535659069
 C        -8.8846329680       -4.4559321845       -0.5578934620
 C        -8.5067738520       -3.3618897498        0.5074506185
 O        -7.4944475638       -3.5353625941        1.1482385419
 C        -9.5090429973       -2.1871346619        0.8011678166
 C        -8.7808009467       -1.3542460764        1.9156278572
 C        -7.8991810403       -0.4731961540        1.1337568870
 O        -7.4220619210       -0.8110959193        0.0608415699
 C        -7.5210239326        0.9580396429        1.7592542242
 C        -7.5216579596        2.0420740509        0.6511764721
 O        -7.0847974042        1.7797795847       -0.4620616622
 C        -7.7301741591        3.5495235178        1.0505568541
 C        -8.6341479470        4.0053929708       -0.1964548030
 C        -9.9583798347        3.2680044604       -0.0108431496
 O       -10.0803225638        2.2808335844        0.6538850578
 C       -11.3118454298        3.8993574290       -0.6499818705
 C       -11.6280997153        5.0107620986        0.4664542837
 O       -10.8599458051        5.9260308473        0.6012324443
 C       -13.0350044455        4.9214210849        1.2048729626
 C       -13.4216935426        6.4063403552        1.5032220659
 C       -12.7996927092        6.9251048250        2.7572667360
 O       -12.3133352657        6.1891218194        3.6123756404
 C       -12.7879726576        8.5751958288        3.0361569337
 C       -12.0737426573        9.5644252143        1.8752846352
 O       -12.0533470520        9.1846181047        0.6792250213
 C       -12.0433567244       11.1326259831        2.3190880142
 C       -12.8006868588       12.0182280219        1.2161769541
 C       -13.5981785902       13.0769051210        1.9947973812
 O       -13.8328050369       12.9881353030        3.1957177826
 C       -14.6533083712       13.9480947183        1.1467198207
 C       -15.7073106103       12.8637689047        0.6426551927
 O       -15.3384514838       11.8637448855        0.0227464775
 C       -17.1580080774       12.9080394003        1.1015735529
 C       -15.2860248346       15.1297375263        1.9494544998
 C       -13.8999067815       14.5810108616        0.0297572780
 C       -14.3502352183        9.0205569936        3.0041724501
 C       -12.1736410363        8.7685635303        4.4032042677
 C       -11.1184074839        4.7482225624       -1.9794714073
 C       -12.3031882220        2.7418400499       -0.8309772402
 C        -8.4788666637        1.3737313165        2.9525184324
 C        -6.1412113083        0.8847598053        2.3375490895
 C       -10.2754446113       -5.0612444310       -0.4320826927
 C        -7.7919729591       -5.5795040859       -0.3149095086
 C        -7.3540824789        0.1583947448       -4.6201087745
 C        -5.8478885295       -1.3535697105       -6.0633048580
 H        -3.2747996702       -0.3906935555       -5.6010288512
 H        -3.0838578416       -1.5372964313       -4.5182321972
 H        -2.7758269308        0.1607369649       -3.9461724228
 H        -6.6440113318       -3.7517333904       -4.9001866754
 H        -8.1612713353       -3.0632092116       -4.4587197283
 H        -6.6157828754       -4.2784253585       -2.1786168981
 H        -7.5480027072       -5.1842942787       -3.3740957502
 H       -10.3914906340       -2.5771547282        1.1796232637
 H        -9.6980532929       -1.4641079118       -0.0547961821
 H        -8.4016231485       -2.0185340914        2.6284660450
 H        -9.5937037605       -0.8866221959        2.5714418878
 H        -6.6981075541        4.0303310987        1.2040379594
 H        -8.3483427887        3.6063748081        2.0728504612
 H        -8.2029829770        3.6165795599       -1.0735591549
 H        -8.7263197018        5.1258926928       -0.3044876005
 H       -12.9413161431        4.4980957801        2.2616685837
 H       -13.7476221439        4.3765864428        0.6700279671
 H       -14.5891420762        6.4366292572        1.7103792184
 H       -13.2981387765        7.0596711394        0.6268662112
 H       -11.0521829073       11.4950026410        2.5696752738
 H       -12.5389966052       11.1233929037        3.3051424307
 H       -13.5133303072       11.3421002443        0.5419201742
 H       -12.0128534494       12.3905844241        0.5410584873
 H       -17.6433055295       11.9323249987        1.2465527558
 H       -17.8000221996       13.4717359987        0.5239185552
 H       -17.0027408324       13.4611331090        2.0646195190
 H       -15.9181610278       15.6361617987        1.1376807178
 H       -14.3710933370       15.7394845622        2.2653075894
 H       -15.8215790253       14.9251239103        2.8870136315
 H       -14.4840157714       15.2073004152       -0.6690728527
 H       -13.5057022001       13.7817757758       -0.5863965782
 H       -13.2362489391       15.3580558023        0.3594526910
 H       -14.4614475309        9.2437736165        1.9753016724
 H       -14.2955275652        9.9678622895        3.5167956063
 H       -14.9796788068        8.2729066691        3.6138132068
 H       -11.3325059776        9.6323857855        4.5244657486
 H       -11.8222742758        7.8375950452        4.9122470910
 H       -13.0233490509        9.0570108487        4.9982634096
 H       -10.6857363397        3.9739962898       -2.6369018471
 H       -10.5396194682        5.6187257956       -1.9877132804
 H       -12.2030105995        4.9794234036       -2.2627055463
 H       -12.4461896919        2.7120587471       -1.9015748033
 H       -13.2799408482        2.8510245543       -0.3356333605
 H       -11.7534653148        1.8141937218       -0.4816879483
 H        -8.9589362353        0.4978017624        3.3635581166
 H        -9.3065244752        2.0574641592        2.7413853262
 H        -7.8667331483        1.9169240167        3.6881350402
 H        -5.8775099471       -0.0743889909        2.6947323122
 H        -6.1390235591        1.5559700634        3.1365276787
 H        -5.3422623804        0.8790139887        1.4831060534
 H       -10.6897867150       -5.6834948903       -1.2724277353
 H       -10.9386720207       -4.2184178672       -0.2299553371
 H       -10.2495559634       -5.7384766088        0.4164681584
 H        -6.7328053953       -5.4025725645       -0.1231875791
 H        -7.7647560000       -6.2928393480       -1.1321186115
 H        -8.1530765809       -6.1201954961        0.4779047923
 H        -7.4697967713        0.8727712429       -3.8463225547
 H        -8.1963487172       -0.5431919305       -4.5187086590
 H        -7.3878270593        0.8243360267       -5.5339954911
 H        -5.6930691366       -0.4376144326       -6.7648111861
 H        -6.6180181117       -2.0337212887       -6.5290273039
 H        -4.9645300840       -1.9734662814       -5.9338595543
 Na       -6.3377764107        0.3975846122       -1.7104765314
