117

 C        -6.0394717528       10.9767278936       -0.4987514051
 C        -6.7697319544       10.5922295817        0.8589526291
 O        -7.9760302080       10.5874974247        0.9446572530
 C        -5.8315665969       10.2742806042        2.0858153460
 C        -5.2178483685        8.8292393905        1.6890411287
 O        -4.0307393669        8.7678956347        1.3992110374
 C        -6.1898686470        7.6819855510        1.8553420594
 C        -5.6983082054        6.4765640003        1.1874630810
 C        -6.7769248152        5.6730196802        0.5419176315
 O        -7.9220661957        5.8166379245        0.9418184711
 C        -6.4534980835        4.7639461917       -0.6765365012
 C        -6.0498789006        3.3943249099       -0.0332087727
 O        -4.9470242256        2.9843290597        0.1636399310
 C        -7.3209790179        2.5136849014        0.3705141278
 C        -6.7659255477        1.3353232733        1.1282158991
 C        -7.8250407735        0.3247944362        1.4769337541
 O        -8.6368569834        0.0254451561        0.5969082716
 C        -7.8388888209       -0.3656579397        2.8810318177
 C        -8.8511554452        0.4372220083        3.7645341557
 O        -8.5316265510        1.2662053235        4.5708367783
 C       -10.2959785656        0.1237839237        3.7217168950
 C       -11.1253950876        1.3455389528        3.9203150204
 C       -11.0628175216        2.2374638077        2.6131404127
 O       -10.1555745335        2.1701700249        1.7704125780
 C       -12.2195838231        3.1995996734        2.3275306718
 C       -13.0753197284        2.4790370299        1.1482882108
 O       -12.6850350661        1.4812865098        0.6309248800
 C       -14.4359185945        3.2253713647        0.7559281222
 C       -15.0213976895        2.8994339234       -0.6752857366
 C       -14.6442082024        4.0594555697       -1.6475810463
 O       -13.8346621211        4.9431618893       -1.4232769689
 C       -15.0912732461        3.9873381061       -3.2200232705
 C       -13.8678251119        3.2671437814       -3.6821540711
 O       -13.6871550023        2.0140990213       -3.5856701775
 C       -12.7183977522        4.1862521846       -4.1456732956
 C       -11.3256893445        3.4673888322       -4.3603654660
 C       -11.2180877278        2.3010349030       -3.3578040907
 O       -11.4144112821        2.6170760844       -2.1774485537
 C       -10.7574627725        0.8977527608       -3.8267646112
 C       -11.7549764633       -0.0508251556       -3.0914382311
 O       -11.6164202562       -0.2880645623       -1.8914526057
 C       -12.7976923979       -0.8751394808       -3.9405984178
 C       -10.8766076081        0.7478155428       -5.3726745807
 C        -9.3192265566        0.7456702548       -3.3652697493
 C       -16.3756355146        3.1124706764       -3.3679337655
 C       -15.2587930675        5.4395736390       -3.6699450310
 C       -13.2636348944        3.4584961106        3.5275673254
 C       -11.6644791170        4.5840082701        1.9016911673
 C        -8.4230855447       -1.7958190334        2.7186151735
 C        -6.3846912570       -0.3907843525        3.5352368631
 C        -7.6700718657        4.7180860340       -1.5883466652
 C        -5.2805039510        5.3573849474       -1.4449217814
 C        -4.5948284270       11.2125541309        2.3435400403
 C        -6.7174999264       10.2481900916        3.2382878373
 H        -5.8287484121       12.0710518254       -0.5048181035
 H        -6.5953632376       10.6652289158       -1.3952017849
 H        -4.9868058599       10.5842496772       -0.6025344888
 H        -7.1126313762        7.9929545000        1.4825571655
 H        -6.4046710045        7.6984611665        2.8997944168
 H        -5.2206902969        5.8279637805        1.9569666489
 H        -4.8263018325        6.6492368275        0.5560075098
 H        -7.8939693856        2.2676610649       -0.5542813527
 H        -8.0122151869        3.1696739162        0.8839208729
 H        -6.1307090482        1.8229984744        1.8905465441
 H        -5.9695378558        0.7435789063        0.5981905213
 H       -10.4963436776       -0.6016784219        4.4864211457
 H       -10.6352376698       -0.3704236506        2.8019241250
 H       -10.7017907256        1.7491691308        4.8637340374
 H       -12.1012636002        1.0674885759        4.1015052046
 H       -14.1859403304        4.2921233215        0.9554954569
 H       -15.1916074187        3.0431776458        1.5621963182
 H       -16.0422828483        2.7335896703       -0.5680864065
 H       -14.4899189094        2.1029593329       -1.1450243263
 H       -12.7313550234        4.9452372634       -3.3641338996
 H       -12.8741191135        4.6536096031       -5.1246233378
 H       -10.5590757831        4.2893339735       -4.1313237850
 H       -11.1367539810        3.0924323788       -5.3600054932
 H       -13.2009559364       -0.1907545336       -4.6324644314
 H       -13.6036254054       -1.1296338212       -3.1314842694
 H       -12.3656856043       -1.7662768817       -4.4456047099
 H        -9.9666728029        1.1781255767       -5.7988588172
 H       -11.8562137921        1.1137967416       -5.7681312247
 H       -10.7662522611       -0.2832853058       -5.7057042439
 H        -9.1138780440        1.2144924073       -2.4522012045
 H        -8.6906645137        1.1989509527       -4.1904609170
 H        -9.0630389043       -0.2860240228       -3.3924060940
 H       -16.2571670528        2.1570246098       -2.8127403671
 H       -16.5217953199        2.9306507627       -4.4009758827
 H       -17.2122219231        3.6247459708       -2.9939951579
 H       -15.1360455285        5.6269185507       -4.7191540752
 H       -14.6182021418        6.1690167874       -3.1280078240
 H       -16.2037807802        5.6257107102       -3.3903342073
 H       -12.7756097995        3.7348686530        4.4159378031
 H       -13.7890533234        2.5662845010        3.7145754987
 H       -13.8512503938        4.3054992433        3.3116451814
 H       -11.1224948350        5.0555403956        2.7120135221
 H       -12.4701504336        5.2626638991        1.7237600276
 H       -11.1396405410        4.4594110088        1.0214338036
 H        -8.7945216655       -2.1000417752        3.7257185984
 H        -7.5675833949       -2.4321032905        2.4194812017
 H        -9.1183243270       -1.9204920010        1.9880120558
 H        -5.7335637180       -0.6421058154        2.7044102359
 H        -6.2139920316       -1.1050056375        4.3547705350
 H        -6.1215659531        0.5090733533        4.0030259424
 H        -7.3261427043        4.6325134336       -2.5922002175
 H        -8.2451067738        5.6271677753       -1.5498145881
 H        -8.1709770248        3.7548070756       -1.4175197743
 H        -5.4168807670        6.4285881423       -1.7095975555
 H        -5.0356620187        4.9112963576       -2.4215280584
 H        -4.3694021092        5.3036736278       -0.8601344296
 H        -3.9913740372       11.5239970780        1.4695294441
 H        -3.8612104831       10.8335222183        2.9994258314
 H        -5.0317456209       12.0755336881        2.9046859487
 H        -7.3098114548        9.3516615521        3.2305815601
 H        -7.5117116705       11.0141878128        3.1811354426
 H        -6.2382769567       10.2775853527        4.1922324972
 Na      -10.4713031624        1.0963280503       -0.4262759583
