117

 C        -3.8763071873       -0.7823578581       -5.1267734327
 C        -5.0025484535       -0.4071483204       -4.1910613377
 O        -4.7996855303        0.3560597305       -3.1924466167
 C        -6.4044066567       -0.9788169662       -4.5176536104
 C        -6.7118353613       -2.0791154689       -3.4612070820
 O        -6.3678050300       -2.0376779828       -2.2713559837
 C        -7.2729488036       -3.4511652811       -3.7998643018
 C        -7.5450198519       -4.4266549706       -2.7312709503
 C        -8.6981866704       -3.9060734455       -1.7743376789
 O        -9.1553292845       -2.8190115249       -2.0993426819
 C        -8.8942091744       -4.5807146262       -0.3958365025
 C        -8.4801358721       -3.4078097341        0.6430020681
 O        -7.3630972322       -3.4384017400        1.0266230332
 C        -9.7042045163       -2.4890229566        1.0783815139
 C        -9.6125420853       -0.9289884221        1.6966231486
 C        -8.3316543208       -0.2659439000        1.2044752565
 O        -7.7772437218       -0.7759821968        0.2451768802
 C        -7.6675561573        0.9456525725        1.8394048183
 C        -7.6816671877        2.1374548999        0.8053933816
 O        -7.3151896753        1.9168971941       -0.3583234832
 C        -7.6110447635        3.6440098361        1.2503560091
 C        -8.5451388414        4.3479466873        0.2182175552
 C        -9.8262727645        3.4937363238        0.0155575684
 O        -9.8051503186        2.3248347075        0.3242970350
 C       -11.0426064051        4.1140338002       -0.6279304784
 C       -11.6496410908        5.2116983828        0.4265865195
 O       -10.7852561925        5.9170937435        0.9028660738
 C       -13.0887487347        5.3833541320        0.7427231001
 C       -13.4501069396        6.7181631014        1.3965427289
 C       -12.4600784900        7.3160686830        2.5327292665
 O       -11.5472539815        6.6887361807        3.0557992243
 C       -12.7452216140        8.7951719478        2.8983741229
 C       -12.1486132067        9.6412552126        1.7651320134
 O       -11.6556589017        9.2406524532        0.7420616955
 C       -11.7986799967       11.0847640873        2.0107292269
 C       -12.4818368044       12.1595434990        1.0153475365
 C       -13.5976814500       12.7607756874        1.7849048998
 O       -13.6707122774       12.8182328329        2.9808716410
 C       -14.6346107794       13.6724295702        0.9543196145
 C       -15.8549236200       12.7842820309        0.3250819521
 O       -15.5970804222       11.9904932379       -0.5632182370
 C       -17.2374839139       12.9512278954        0.7027128856
 C       -15.1780343018       14.8147478633        1.8751054925
 C       -13.9369906694       14.3412835089       -0.3093041213
 C       -14.3076263002        8.9720784609        3.3730050821
 C       -11.8518931446        9.1321289349        4.2466605651
 C       -10.5521355970        4.8766477170       -1.8937807646
 C       -12.1306807456        3.0467282409       -0.9275776308
 C        -8.3386619940        1.5078114426        3.1562008723
 C        -6.1227306839        0.6128171149        2.0112332111
 C       -10.4660812526       -5.0390131003       -0.0736980465
 C        -8.1060538781       -5.8563906599       -0.1528161697
 C        -7.4192861634        0.2112831870       -4.3670837865
 C        -6.3471251539       -1.6499363994       -5.9646534471
 H        -4.0452059212       -0.4670227836       -6.1495451770
 H        -3.5651443995       -1.8574564538       -5.2665109214
 H        -2.9181143617       -0.3310588479       -4.7945318759
 H        -6.6001026360       -3.8545269748       -4.6413672836
 H        -8.2362337951       -3.2071792584       -4.3662777238
 H        -6.6237541036       -4.5485622153       -2.2237376323
 H        -7.8034668744       -5.4609680550       -3.1262790158
 H       -10.1858570091       -3.0313485231        1.8394794735
 H       -10.3467091811       -2.4636635151        0.2069821366
 H        -9.7447252042       -0.8613748145        2.7365297243
 H       -10.6015436308       -0.3396354705        1.5148028504
 H        -6.5051447070        3.9749569224        1.4641821600
 H        -7.8243739411        3.9696562043        2.2999085580
 H        -8.0892148943        4.5617292557       -0.7403575829
 H        -8.9869074112        5.3761714030        0.6370424590
 H       -13.4001028465        4.4726952184        1.2685619968
 H       -13.5186646862        5.4789083122       -0.2390904668
 H       -14.4262047829        6.3752633988        1.9235426575
 H       -13.8227857321        7.2977180650        0.5659228276
 H       -10.7496873389       11.0740956374        1.9326413288
 H       -11.9567735983       11.2908457062        3.0574579065
 H       -12.8802247844       11.6656612134        0.0209674396
 H       -11.7979360964       13.0511220418        0.8619083197
 H       -17.9501673234       13.0127799408       -0.1087358361
 H       -17.3935252736       13.7732613194        1.3815859543
 H       -17.5066771930       11.9322282749        1.1915349779
 H       -16.1120650383       15.2612899490        1.5257542061
 H       -14.3613980493       15.5405492162        1.8435633308
 H       -15.3050328545       14.3560475566        2.8296976195
 H       -14.4988930992       15.0107331834       -0.8960243772
 H       -13.7320522614       13.5915483694       -0.9599961755
 H       -13.0498190345       14.8841210240       -0.0759771928
 H       -14.3054754927        9.7510509402        4.0776175356
 H       -14.6945358701        8.0294185008        3.7804948479
 H       -14.7677885042        9.3840607344        2.4389554740
 H       -12.2695501689        9.8032000716        5.0682736691
 H       -10.8731789580        9.5491104647        4.1837899350
 H       -11.4996324119        8.0681225158        4.5277559631
 H        -9.9533427146        4.2679005986       -2.6599168271
 H       -10.0876965098        5.7567327159       -1.4796986818
 H       -11.5199078829        5.1027818420       -2.4331607943
 H       -13.1199090204        3.4638161060       -0.7951976708
 H       -12.1101205744        2.4133397805       -0.0986833592
 H       -12.0202844604        2.6370313914       -1.9158234764
 H        -7.6726697895        1.5129237525        4.0477308121
 H        -9.2139312967        0.7964945194        3.4811543894
 H        -8.7926556530        2.4479985994        3.1043459269
 H        -5.9575548299        0.5441645293        3.0284892935
 H        -5.5697152813        1.4874361583        1.6757577886
 H        -5.7563842285       -0.3814436183        1.4946942879
 H       -10.6441602208       -5.8772977833       -0.7977546999
 H       -11.2003883011       -4.3059808554       -0.2963443143
 H       -10.5618159522       -5.3602018788        0.9215036199
 H        -7.1031213624       -5.5878626223        0.1090400104
 H        -8.0473226691       -6.4091794859       -1.0474611111
 H        -8.4451204190       -6.5234278253        0.7983363451
 H        -7.4206241607        0.5520232655       -3.4072036957
 H        -8.4167885687       -0.1557368901       -4.5422815446
 H        -7.2838708559        1.0901616087       -5.0221553760
 H        -6.1428890039       -0.8892551072       -6.7052794398
 H        -7.2930164697       -1.9976385286       -6.2770122934
 H        -5.6590004358       -2.4320605632       -6.0421727676
 Na       -6.1978801175        0.0171016915       -1.1232622906
