117

 C        -3.9826874733       -0.6265696627       -5.2288147719
 C        -5.0265941013       -0.6921254294       -4.1794705041
 O        -4.8022334207       -0.2349735249       -3.0734353407
 C        -6.5658766926       -1.2234612446       -4.4955724489
 C        -6.7534759227       -2.3003344116       -3.3660773376
 O        -6.5472886656       -2.1124327827       -2.1566281569
 C        -7.2614989122       -3.6153679859       -3.7466413387
 C        -7.7101322002       -4.4956859116       -2.5240724756
 C        -8.6935744716       -3.8529058957       -1.5987434083
 O        -9.3298313953       -2.8681988041       -1.9122640074
 C        -8.9202269433       -4.4769475096       -0.1912294291
 C        -8.6412737411       -3.3340208905        0.8526522075
 O        -7.5794866665       -3.1206252073        1.3986573729
 C        -9.8713552290       -2.2922224667        1.0710573320
 C        -9.4308027213       -1.1185769976        1.8068815847
 C        -8.3000801914       -0.4377667414        1.1192330496
 O        -7.8933538958       -0.8167728801        0.0219978990
 C        -7.6274885695        0.7491014249        1.7696069044
 C        -7.4717247540        2.0551856998        0.7394506457
 O        -6.9195518880        1.9024080637       -0.3371458680
 C        -7.6365221352        3.4560970549        1.1930885723
 C        -8.5112349978        4.3238028530        0.3651169153
 C        -9.8050386837        3.5679755424        0.0108508149
 O        -9.8482359590        2.3358062887        0.2068903899
 C       -10.9351376843        4.3376684366       -0.5424475063
 C       -11.3654572972        5.5743623777        0.3642052092
 O       -10.6091446290        6.5362760865        0.5423681342
 C       -12.9565246082        5.6694030006        0.6641693245
 C       -13.4003316378        6.9579779470        1.4715194010
 C       -12.4224710850        7.2830913591        2.5434363805
 O       -11.8022520298        6.4707087871        3.2419835516
 C       -12.4156498697        8.8485101474        2.9954765871
 C       -11.9480807234        9.7072222141        1.7461793795
 O       -11.9442002245        9.3505875230        0.5686688951
 C       -11.6399836241       11.2544215918        1.9318009552
 C       -12.4180737220       12.1134692038        0.9839365582
 C       -13.7103564213       12.7754511580        1.7125159436
 O       -13.9202355041       12.6320224606        2.9132321227
 C       -14.6627842752       13.6047523326        0.7911476217
 C       -15.7719300853       12.7380852223        0.1878642045
 O       -15.6552666790       12.0051252217       -0.8036941021
 C       -17.2521242309       12.8485792404        0.7126242116
 C       -15.2543222440       14.7896731878        1.6794786949
 C       -13.8355260923       14.1797178920       -0.4656083609
 C       -13.9795305104        9.3316158042        3.0147847782
 C       -11.6970140747        9.1380436566        4.2698838727
 C       -10.6870375957        5.0183947021       -1.9317985433
 C       -12.0948757201        3.2914878360       -0.9235480075
 C        -8.2917585613        1.1098080227        3.1480309800
 C        -6.1521358828        0.4488451098        2.1574110272
 C       -10.4440688866       -4.8980167475       -0.2893144223
 C        -8.0800530920       -5.7096079690        0.0766909137
 C        -7.4570127203        0.0585030606       -4.2345704848
 C        -6.8842528091       -1.6433848709       -5.8844608925
 H        -4.3455549285       -0.0599461040       -6.1138497398
 H        -3.6887660986       -1.5441247228       -5.6207667004
 H        -2.9940000101       -0.2152326770       -4.9244766222
 H        -6.4150117080       -3.9461628739       -4.3071375898
 H        -8.0476375528       -3.5676174286       -4.4778189399
 H        -6.8049342421       -4.8755171523       -1.9359325719
 H        -8.1827766431       -5.4028670206       -2.8278361594
 H       -10.6944013246       -2.8952704258        1.5656437316
 H       -10.1736763852       -1.9225582869        0.0307608186
 H        -9.2994078446       -1.2530554339        2.9268955584
 H       -10.0995374374       -0.3400572033        2.0068531872
 H        -6.7133611913        3.7707669376        1.3650096301
 H        -7.9015391060        3.6386899919        2.2342997534
 H        -8.0957761598        4.4875799808       -0.6415279581
 H        -8.6026242863        5.2381009362        0.7852627814
 H       -12.9747293510        4.7810584563        1.3466442144
 H       -13.5072323945        5.5883522431       -0.3027866330
 H       -14.3681322773        6.7964194800        1.8732201208
 H       -13.4892194158        7.7368567804        0.7009989955
 H       -10.5569368899       11.2782582152        1.5048155039
 H       -11.5598150091       11.6341009545        2.9795253370
 H       -12.6476953517       11.4685730293        0.2096434070
 H       -11.8821296503       12.9796806947        0.6747062295
 H       -17.6199796272       13.7243714007        0.1434186891
 H       -17.3976433294       13.1773224041        1.7125044768
 H       -17.8475218889       12.0974847360        0.3014327477
 H       -15.8402315451       15.5286082287        1.0510632311
 H       -14.3292544692       15.3438076954        1.9770376921
 H       -15.8919273136       14.3277674012        2.4731046013
 H       -14.4527843777       14.9783548891       -0.9611593026
 H       -13.4062644291       13.5032838963       -1.3211373382
 H       -12.9350198786       14.7081161892       -0.0343408116
 H       -14.3374729256        9.7731947132        4.0071876144
 H       -14.3036066337        8.3260902601        3.1218735782
 H       -14.3157596267        9.9683699395        2.1945982280
 H       -12.2666877370        9.7575796256        4.9671260140
 H       -10.7302470503        9.7392403395        4.2257189755
 H       -11.3190596373        8.2518949183        4.6527147220
 H       -10.3279144899        4.2576865275       -2.5660098440
 H        -9.8973528236        5.7192238127       -1.6228623089
 H       -11.5056818178        5.4788761156       -2.4547883831
 H       -13.1062123432        3.5794320259       -0.7227244149
 H       -11.9829735828        2.4628752743       -0.1803106192
 H       -11.9613803767        2.9993355661       -1.9730306516
 H        -8.2836722439        2.1755209807        3.3835634065
 H        -7.8079660948        0.6644763832        3.9195346387
 H        -9.3741473796        0.8855390118        3.3917629043
 H        -6.1702729361       -0.1990574121        3.0985015677
 H        -5.4645663951        1.3089246366        2.2273193160
 H        -5.7699047091       -0.0984610182        1.2903590262
 H       -10.5509303601       -5.7316518114       -0.9432037802
 H       -10.9842520900       -4.0313278658       -0.7343501293
 H       -10.8482121470       -5.0323907912        0.7552794955
 H        -6.9767733376       -5.4921056787        0.1415178428
 H        -8.3390133567       -6.3850286021       -0.7614888137
 H        -8.2812708842       -6.1748358048        0.9307164330
 H        -7.6216028927        0.3163123481       -3.1277621216
 H        -8.4050381184        0.1376336893       -4.8095439383
 H        -6.9420286195        0.9015629758       -4.6802401284
 H        -6.7011384070       -0.9050626114       -6.7192513752
 H        -7.9521274455       -2.0103163461       -6.0458481432
 H        -6.1581799868       -2.4983727292       -6.0849407666
 Na       -6.0012701667       -0.0728856072       -0.9965572191
