117

 C        -4.0963213608       -0.6038791042       -5.3403116791
 C        -5.1319471436       -0.7463844268       -4.2163684922
 O        -4.7253225166       -0.5082662900       -3.0443149684
 C        -6.5767980622       -1.1775573329       -4.3911708837
 C        -6.8895977048       -2.3411066673       -3.2954433494
 O        -6.6310722864       -2.1280625603       -2.0934708674
 C        -7.3664975886       -3.7628434715       -3.7370432204
 C        -7.6477136750       -4.5770184723       -2.5050310110
 C        -8.6712638188       -3.7526729631       -1.5688010728
 O        -9.4149516040       -2.8800530371       -1.9464778813
 C        -8.9877135509       -4.4314528098       -0.1197420476
 C        -8.8401463847       -3.3286694217        0.8900545539
 O        -7.8671939079       -3.1656346265        1.5599304490
 C        -9.9406812298       -2.2451488449        1.1093570236
 C        -9.2942347058       -1.1426345539        1.8250594905
 C        -8.2190806566       -0.3581745059        1.0441748081
 O        -7.9149901465       -0.7243422345       -0.0751441067
 C        -7.4798095067        0.7975523587        1.7884309264
 C        -7.3265220077        2.0302767791        0.8517041521
 O        -6.8347371860        1.7980836698       -0.2346929584
 C        -7.5144545266        3.4688936772        1.3331774484
 C        -8.4313893020        4.2861646412        0.3071689276
 C        -9.8194119332        3.6460676464       -0.0355362052
 O        -9.9002789891        2.4601759161        0.1970749553
 C       -10.9354029846        4.4824063423       -0.6545281627
 C       -11.4627121905        5.7466744398        0.1999041863
 O       -10.6904075804        6.6203252826        0.4443070394
 C       -12.8272653373        5.6925929646        0.7565534000
 C       -13.2367792376        7.0153080724        1.3987402452
 C       -12.4366709168        7.3628279572        2.6038680276
 O       -11.9274416973        6.4959335697        3.3113599736
 C       -12.3836322476        8.9188920254        3.0170636020
 C       -11.9038685895        9.6884332721        1.6882812142
 O       -12.0730596487        9.2640589519        0.5133914241
 C       -11.5501980897       11.2477810238        1.8498423053
 C       -12.4711999610       12.1908669586        1.1057731220
 C       -13.7940994631       12.7281439162        1.6682151844
 O       -14.1221347328       12.5676236724        2.8027039993
 C       -14.6368442269       13.6224410914        0.7135818188
 C       -15.7804070108       12.7368689323        0.0266205571
 O       -15.5489752275       11.9313922635       -0.8620821338
 C       -17.1796506025       12.8229644593        0.7377705886
 C       -15.1315348223       14.7597485882        1.5743275517
 C       -13.9520723296       14.2848924716       -0.5434224431
 C       -13.7912830389        9.5903769619        2.9924940997
 C       -11.5785154899        9.0550025178        4.3207571606
 C       -10.5852362161        5.0118676646       -2.0707429246
 C       -12.1109134599        3.4437302079       -0.8691731609
 C        -8.2737375321        1.1448532921        3.1130113119
 C        -6.0284543058        0.2289294125        2.2124507116
 C       -10.4767283320       -5.0309874533       -0.3314703705
 C        -8.0082180740       -5.6062769115        0.2438321782
 C        -7.5396843421       -0.0241194455       -3.9930215380
 C        -6.8483996168       -1.6740415474       -5.8491263863
 H        -4.3381213054        0.0141499665       -6.1560325835
 H        -3.8168308502       -1.5464981506       -5.7173824808
 H        -3.1045551938       -0.2903408893       -4.9671716686
 H        -6.6180320611       -4.1591516552       -4.4051496667
 H        -8.3284324858       -3.7364099540       -4.3709516014
 H        -6.6918275771       -4.7520650587       -1.9273189570
 H        -7.9653994821       -5.6002253027       -2.7459595796
 H       -10.6392890396       -2.7792238949        1.6274903560
 H       -10.3394985776       -1.8514514917        0.1053214414
 H        -8.8480445904       -1.4812706111        2.7519614314
 H        -9.9492537792       -0.4622819134        2.3955236733
 H        -6.5030459181        3.8235150985        1.6978186269
 H        -7.9436262050        3.5822481164        2.3780807472
 H        -7.9228610734        4.5125220500       -0.6410337938
 H        -8.6452777095        5.3291080648        0.6948419414
 H       -12.8768121790        4.7650337478        1.4722474638
 H       -13.3830116484        5.6337050887       -0.1168597813
 H       -14.2733906937        6.9347554126        1.6532919736
 H       -13.2055477053        7.6427090229        0.6014182720
 H       -10.4716475945       11.5828483099        1.6376185159
 H       -11.7308304128       11.4764015437        2.9155090183
 H       -12.7480441062       11.6587640675        0.1916833609
 H       -11.9993092536       13.0768057722        0.9033739107
 H       -17.5929089019       13.8275897033        0.8988455529
 H       -16.9412203653       12.5380961176        1.7103146347
 H       -17.9456729960       12.2852341701        0.1421176735
 H       -15.5540178256       15.4092141419        0.8015159949
 H       -14.2783576730       15.3202677599        1.9296929973
 H       -15.8524233059       14.4402659855        2.2490567745
 H       -14.7340033642       14.9256023955       -1.0986828909
 H       -13.4971481310       13.5537795503       -1.2883558586
 H       -13.0645290844       14.9317707327       -0.2475305930
 H       -13.7595321116       10.3952148996        3.7082028790
 H       -14.4980228060        8.8934231023        3.4186436587
 H       -14.0527956674       10.0946295260        2.0137607497
 H       -12.1165843832        9.7738347109        4.9970336057
 H       -10.6236272976        9.4299203088        4.3177801366
 H       -11.4715147122        8.1169018722        4.7600691588
 H       -10.4464658504        4.1387084895       -2.7479007531
 H        -9.6925175763        5.5594554508       -1.9596690213
 H       -11.3933104537        5.6837715652       -2.5735399389
 H       -13.0681294035        3.8853179748       -1.0745442257
 H       -12.2723203845        2.9336438995        0.0949219006
 H       -11.8620993794        2.7374183182       -1.7294972670
 H        -8.6918217882        2.1084525263        3.3416436036
 H        -7.8272389936        0.7293590781        4.0664902323
 H        -9.2000264667        0.6605409886        3.2144259889
 H        -6.1772069773       -0.7212284007        2.6650716873
 H        -5.4757915607        0.8906948876        2.8220652651
 H        -5.3907605543        0.2575431753        1.2036399931
 H       -10.3715433511       -5.9728605077       -0.8945341164
 H       -10.9173556528       -4.3145074222       -1.0307775092
 H       -11.1086212404       -5.0504232790        0.5821770602
 H        -6.9215756414       -5.4587691247        0.3549833435
 H        -8.3396318935       -6.5424885661       -0.2276273495
 H        -8.3910795983       -5.7427701697        1.3650237312
 H        -7.5315194616        0.1881002360       -2.9509793700
 H        -8.5668118346       -0.2740080230       -4.3360521068
 H        -7.4177224014        0.9375481127       -4.5804509536
 H        -6.6551383868       -0.9098081842       -6.6881893839
 H        -7.9098565836       -1.9612784576       -5.9542008335
 H        -6.2144917913       -2.4930165982       -6.1134642784
 Na       -5.9233825531       -0.1745877913       -1.0907523645
