117

 C        -4.3417992000       -0.6364298675       -5.4171977297
 C        -5.1267342821       -0.7950610248       -4.0653484156
 O        -4.5452063568       -0.6567429013       -3.0305723715
 C        -6.6534502619       -1.2421417718       -4.2579204159
 C        -6.8506165831       -2.3739922320       -3.3299832369
 O        -6.7324711541       -2.1947197431       -2.1789728903
 C        -7.4579002990       -3.7816213896       -3.7173152018
 C        -7.7016083722       -4.5115520840       -2.4287215348
 C        -8.7334963535       -3.9391041267       -1.5445519557
 O        -9.3022302855       -2.9881190718       -2.0167545583
 C        -9.1388155071       -4.4883217174       -0.1554746557
 C        -9.0070025482       -3.3535866563        0.9413328296
 O        -8.0475727605       -3.4329231963        1.6926336372
 C       -10.0396213024       -2.2457734988        1.0513705508
 C        -9.4277862817       -1.0827426978        1.7775921298
 C        -8.2263307957       -0.2941946705        1.0764735329
 O        -7.9720736378       -0.5840520751       -0.0716414458
 C        -7.3861977449        0.8063595606        1.9251713813
 C        -7.1412779306        2.0088118376        0.9563039743
 O        -6.7004945998        1.8114361709       -0.1787747317
 C        -7.5713364572        3.5200443777        1.2837550482
 C        -8.3182194574        4.3448405025        0.2334801076
 C        -9.7119823750        3.7142529832       -0.0400570929
 O        -9.9198710655        2.5654254377        0.2431336607
 C       -10.9443881730        4.5179986149       -0.8110204827
 C       -11.4234785713        5.7796789469        0.1059134184
 O       -10.6583307580        6.6404413609        0.2830539475
 C       -12.8603167796        5.6184869589        0.8594949319
 C       -13.3311931772        7.0046432052        1.3439544471
 C       -12.5492839491        7.4220007049        2.6328514295
 O       -12.0275360498        6.6568018704        3.3944895632
 C       -12.3649763850        8.9731851197        2.9077690773
 C       -11.8627353123        9.8287052961        1.6672871828
 O       -11.9593630681        9.3959189935        0.5497733958
 C       -11.4819366340       11.2363158849        1.9178977881
 C       -12.3875680089       12.2040437268        1.0248615487
 C       -13.7922305964       12.7038576299        1.5292421510
 O       -14.2907475872       12.4680839138        2.5980555906
 C       -14.7185968878       13.7586343720        0.5417051619
 C       -15.7789472573       12.6507145181        0.0852707174
 O       -15.4448354956       11.9663589276       -0.8417485978
 C       -17.1190570739       12.7016559057        0.7440245276
 C       -15.1608633958       14.8599747075        1.5033620836
 C       -13.9031458511       14.2715248463       -0.6099657995
 C       -13.7369230664        9.6172553194        3.2146935556
 C       -11.4817862991        9.0680814226        4.1476109488
 C       -10.3761713490        5.0448492116       -2.1957263819
 C       -12.2135741269        3.5314872453       -0.8556778735
 C        -8.0453566045        1.2931234773        3.2789407396
 C        -6.0434101163        0.0984807416        2.1949873931
 C       -10.4705390017       -5.1004496439       -0.2345290160
 C        -8.0071346988       -5.5146554571        0.3877595202
 C        -7.6293097177       -0.1205034157       -3.8281993118
 C        -6.8495476408       -1.7033794741       -5.7609046277
 H        -4.7527239633        0.0956897847       -6.0782662220
 H        -4.1378937280       -1.6000009509       -5.9932388611
 H        -3.3696781911       -0.3337800112       -5.3100455877
 H        -6.9851004199       -4.5584258278       -4.4065372950
 H        -8.4533107007       -3.5453116923       -4.2076202304
 H        -6.8163268253       -4.6509152741       -1.8466432701
 H        -7.8447708560       -5.5683122600       -2.8470310406
 H       -10.8761785194       -2.7956465880        1.4661772164
 H       -10.2490895452       -2.0405419256        0.0565180238
 H        -9.1155883488       -1.4079137312        2.7717084753
 H       -10.1046039480       -0.3111961461        2.2777338980
 H        -6.5169657593        4.1077238162        1.5740349410
 H        -7.9624881566        3.7028971570        2.2904771602
 H        -7.6689332959        4.5163356682       -0.6551307834
 H        -8.5352961289        5.4696804938        0.5850143050
 H       -12.7258364210        5.0895064645        1.7658989772
 H       -13.5518963475        5.2566965375        0.0891474342
 H       -14.4032344889        6.8572940093        1.5119095513
 H       -13.2660956398        7.6960673495        0.4953289564
 H       -10.4854449976       11.5564478703        1.7881464651
 H       -11.7482589967       11.5424380125        2.9428029022
 H       -12.6922935253       11.6590973332        0.0795098544
 H       -11.8495317910       13.1667266272        0.8596626433
 H       -17.3268059601       13.5960446412        1.2834528316
 H       -17.1002588671       11.9744780905        1.5966147004
 H       -17.8592339488       12.5991481183       -0.0700542664
 H       -15.7718986105       15.4873546221        0.9821818036
 H       -14.3487794206       15.4228824456        1.7964281488
 H       -15.6660281449       14.3361685616        2.2750538348
 H       -14.5394993835       14.7939970780       -1.3310363370
 H       -13.4324031454       13.4599861266       -1.0934381605
 H       -13.0318514290       14.8965386951       -0.3304365206
 H       -13.3783581879       10.5927130494        3.1973475867
 H       -14.1701056332        9.5174796038        4.2277883459
 H       -14.3409114951        9.6757356124        2.3258577687
 H       -11.8137502722        9.9381473442        4.6522511655
 H       -10.4457209958        9.2116085843        4.1025457443
 H       -11.5909540150        8.1704172778        4.8793755281
 H       -10.2532091519        4.2052110354       -2.9968311844
 H        -9.4347199403        5.6310895314       -2.0222266881
 H       -11.1703940265        5.7117831291       -2.5807903838
 H       -12.8948231236        3.7584627789       -1.7237999624
 H       -12.7994541016        3.5435158112        0.0281189708
 H       -11.8610805905        2.5097650276       -1.0326535575
 H        -8.2068074891        2.3338867045        3.4739101222
 H        -7.7702066705        0.7678711446        4.2561886054
 H        -9.1097439493        1.0793618514        3.3119043718
 H        -6.1427555486       -0.9536279956        2.1519310415
 H        -5.7109989565        0.4029656079        3.1949736967
 H        -5.3053034061        0.5844030935        1.6154255201
 H       -10.3078944275       -6.0850767970       -0.7621926808
 H       -11.1539559447       -4.4802486502       -0.7999458622
 H       -10.8140435191       -5.2057253371        0.7632200994
 H        -7.0500617019       -4.9441080927        0.4776266225
 H        -7.9430855653       -6.5871284524        0.0501546326
 H        -8.2579567713       -5.5580069896        1.5288859553
 H        -7.3257010694        0.2850415993       -2.8992423151
 H        -8.6092488817       -0.5321537749       -3.7418185454
 H        -7.8104873016        0.6718592791       -4.5633930462
 H        -6.6627676034       -0.8679814648       -6.3490080792
 H        -7.8631540229       -1.8938816107       -5.9349844769
 H        -6.2535948090       -2.4746318681       -6.1813182085
 Na       -5.8717876314       -0.2573682216       -1.2001761706
