117

 C        -4.7055234806       -0.7950261646       -5.4432077029
 C        -5.3185015990       -0.9129671612       -4.0696727942
 O        -4.7777578358       -0.4919804639       -3.0912506913
 C        -6.8538891405       -1.4714700403       -4.0874083407
 C        -6.8524131663       -2.5331701939       -3.0354317392
 O        -6.3912585568       -2.4510573625       -1.9437260239
 C        -7.5132362728       -4.0652313017       -3.4062276544
 C        -8.0431219062       -4.8119706114       -2.2613998368
 C        -9.0526496479       -4.1918736814       -1.3177523185
 O        -9.8009281631       -3.3727010591       -1.8270040078
 C        -9.2566571501       -4.5755869812        0.1595070585
 C        -9.1959323854       -3.3417254240        1.1418107969
 O        -8.8570585315       -3.5204241797        2.3013001529
 C        -9.9100793192       -2.0031427641        0.7308955419
 C        -9.4287241493       -0.8471607548        1.5832312986
 C        -8.1905648430       -0.1451827342        0.9265183427
 O        -8.0608072973       -0.1265129243       -0.3059157840
 C        -7.3288641462        0.7996226515        1.7883716303
 C        -6.9359296527        2.0911100449        0.9722151720
 O        -6.2261812388        1.9650782265       -0.0290551005
 C        -7.5332024970        3.4443627814        1.2544354161
 C        -8.2384716639        3.9885661071        0.0287776800
 C        -9.7853227760        3.6178229431        0.0132633073
 O       -10.2647766052        2.6967240211        0.6904500231
 C       -10.6934718360        4.3357608081       -0.9696160029
 C       -11.2644465415        5.5513893701       -0.0267241721
 O       -10.5268607563        6.5511559131       -0.0485518271
 C       -12.6660310313        5.5913111361        0.7867703128
 C       -12.7696401006        7.1505852319        1.1234133040
 C       -12.3707401401        7.5819074809        2.5509166761
 O       -12.2283398628        6.7166451491        3.3705925846
 C       -12.1214171996        9.0758177019        2.9826006083
 C       -11.8445147263       10.0222793749        1.7478091215
 O       -11.7209650393        9.6924177527        0.6065147132
 C       -11.6736051203       11.6600316165        2.0982892540
 C       -12.1559290838       12.7115863220        1.1368036465
 C       -13.7453941405       12.9097528755        1.2472353023
 O       -14.4548642831       12.4608737169        2.1737544282
 C       -14.5639862452       13.7442287192        0.1081109037
 C       -15.5906374760       12.6401272552       -0.2288584603
 O       -15.4589699314       11.9891638486       -1.2317775361
 C       -16.8765361369       12.3640240432        0.6648990813
 C       -15.4091794720       14.8575167978        1.0310814228
 C       -13.9591630482       14.4443118939       -1.1992208008
 C       -13.5307176199        9.7160896810        3.8472596898
 C       -10.9015412089        9.2123087720        3.8764342326
 C        -9.8855430666        4.9492108863       -2.1077399150
 C       -11.8589967878        3.5595888005       -1.4507773384
 C        -7.9225101503        1.1930236626        3.1783353575
 C        -5.9827146912        0.0025375729        2.1733307011
 C       -10.7079476139       -5.0667976592        0.3088873024
 C        -8.1960225667       -5.5434561521        0.7481365902
 C        -7.6360725077       -0.1995902218       -3.5991355605
 C        -7.4162712827       -1.8374221213       -5.4185151719
 H        -4.9799889459        0.1494612118       -5.8287764594
 H        -4.8643287491       -1.6056782209       -6.1636078066
 H        -3.6746598916       -0.6157258189       -5.4336371509
 H        -6.6260127268       -4.6785153284       -3.7770091675
 H        -8.1926666748       -3.8812598526       -4.2121926180
 H        -7.1806406994       -4.9970586714       -1.6388678681
 H        -8.3431352993       -5.8725292162       -2.5973431304
 H       -10.9827334324       -2.0881551684        0.8290270765
 H        -9.6809280041       -1.9746197181       -0.2166127325
 H        -9.3172090935       -0.9072961633        2.6456402165
 H       -10.2667888726       -0.1093343047        1.7566858410
 H        -6.6267521223        4.2392099804        1.3905595890
 H        -8.1834682465        3.5232043802        2.1580532184
 H        -7.8660318758        3.5569365700       -0.9312383924
 H        -7.9173595600        5.0835858518       -0.1089174360
 H       -12.4248869382        5.0439753216        1.6277060189
 H       -13.5207053926        5.2493723182        0.1096001286
 H       -13.7686277334        7.4516669350        1.0834628490
 H       -12.3400967700        7.6206889505        0.2540209705
 H       -10.6908944659       11.9829947532        2.2932750913
 H       -12.1389801903       12.0010647494        3.0683242338
 H       -12.0097206703       12.1069690283        0.2625747991
 H       -11.7026067652       13.6941437916        1.0515515072
 H       -16.5605419954       11.9837082028        1.6080737818
 H       -17.4957296309       11.5220754269        0.2147254049
 H       -17.4176945926       13.2678312094        0.8070008036
 H       -16.1916578523       15.2137852960        0.4135789746
 H       -14.7474643825       15.6251410888        1.4059868090
 H       -15.7422241166       14.2404343759        1.9175743456
 H       -14.6902562653       15.1940506862       -1.6230458889
 H       -13.4819170448       13.7414191948       -1.9549113089
 H       -12.9604192219       14.8918448383       -0.8607510157
 H       -14.0181024400       10.5795972630        3.4468345015
 H       -13.2053926306        9.9220472954        4.9089043031
 H       -14.2429150366        8.9587219613        3.7107108376
 H       -10.6689708743        9.9637096809        4.4870204716
 H       -10.0465516451        8.7940600695        3.3738670697
 H       -11.1801511975        8.4902231067        4.6307738182
 H        -9.0804379283        4.2869170771       -2.4794489180
 H        -9.3879735811        5.8540895753       -1.6085573798
 H       -10.5077654109        5.3215036177       -2.8527066444
 H       -12.8682001282        4.0757646215       -1.5088785075
 H       -11.8879691295        2.6214973008       -0.9376664779
 H       -11.6455278473        3.1627536532       -2.4107723291
 H        -8.2638402510        0.3492948865        3.7954789159
 H        -8.6909347051        1.9358273172        3.1733725545
 H        -7.1272918913        1.5553256934        3.9286375812
 H        -5.2426469710       -0.0169607607        1.3434840521
 H        -6.1840618350       -1.0934009044        2.4720240727
 H        -5.7701044923        0.4261702056        3.0363576772
 H       -10.6039736228       -5.9827472414       -0.3598026676
 H       -11.4755554309       -4.3543014687       -0.0227484001
 H       -10.7841823736       -5.4723467756        1.3003379153
 H        -7.2497343797       -5.0606407572        0.3071000671
 H        -8.3553400300       -6.6846761044        0.7355250859
 H        -8.2245461049       -5.4023365408        1.7738908307
 H        -7.0081380768        0.4065732959       -2.8670530703
 H        -8.6110434958       -0.4501946717       -3.1269714741
 H        -7.8662780242        0.4404790009       -4.4643094302
 H        -7.0484373375       -1.1034637290       -6.1046458199
 H        -8.5219598514       -1.9609945203       -5.4667271738
 H        -6.9608480345       -2.8111283573       -5.8494447859
 Na       -6.0213782595       -0.2148474847       -1.0516122921
