117

 C        -4.6827282854       -1.0650157593       -5.3523858647
 C        -5.5691738522       -0.8697118010       -4.0830488126
 O        -4.9674609622       -0.2656091687       -3.2084541002
 C        -6.9971507648       -1.4337242415       -3.9461702483
 C        -7.0226669595       -2.5983880973       -2.8339768632
 O        -6.4639442608       -2.3602516672       -1.7282056524
 C        -7.6792596723       -3.8993254992       -3.2105758836
 C        -7.8719906053       -4.7089993488       -1.8651168758
 C        -9.1611670733       -4.2633442382       -1.1163841171
 O        -9.8744131688       -3.5593062746       -1.7876801909
 C        -9.4827916689       -4.5389025013        0.3494655089
 C        -9.4270773866       -3.2515735744        1.2056461343
 O        -9.0370031678       -3.2299544032        2.3369272319
 C        -9.9894821078       -1.9204798434        0.6845976584
 C        -9.3655427860       -0.8460994757        1.5195206398
 C        -8.2326797519       -0.1086817815        0.8421440651
 O        -8.0038610598       -0.0541370968       -0.3497092924
 C        -7.3132924760        0.7211029403        1.8150746951
 C        -6.9264795282        1.9225194181        0.9157269176
 O        -6.1041483033        1.8031489822        0.0222599820
 C        -7.4643540002        3.4009190077        1.2355014815
 C        -8.3180813588        3.9843739938        0.0860560795
 C        -9.7994693246        3.5473686838        0.0624668809
 O       -10.2565148249        2.7834220622        0.8668583202
 C       -10.5720907768        4.3765367266       -0.9653587594
 C       -10.9001611737        5.7968090381       -0.1711296968
 O       -10.0270644573        6.5340550180       -0.0446166096
 C       -12.2485454752        5.8860705483        0.6640054131
 C       -12.7912726235        7.2667505224        1.1082575224
 C       -12.1467370643        7.6008469948        2.4350095450
 O       -12.1103227339        6.7273732468        3.2858457518
 C       -11.9590496975        9.1306881051        2.9398906566
 C       -11.7864181975       10.2760427910        1.7545459709
 O       -11.8859464826        9.9602756291        0.5530218237
 C       -11.5825254311       11.7292858804        2.1903572243
 C       -12.2570765482       12.6778995367        0.9695090015
 C       -13.7788766962       12.8883527777        1.3026938302
 O       -14.2760638203       12.6527040837        2.3443972097
 C       -14.7399048885       13.6628339072        0.1076183990
 C       -15.7577295908       12.5688285316       -0.5319432035
 O       -15.5449657182       12.1341962255       -1.6318452202
 C       -16.8802940013       12.1008897851        0.3394539907
 C       -15.3663893032       14.9030291526        0.7438390321
 C       -13.7771710784       14.1489395386       -1.0549326060
 C       -13.3419431434        9.5583427287        3.6249498805
 C       -10.6895218611        8.9361048874        3.9151812784
 C        -9.8896362521        4.7436884289       -2.2836214810
 C       -11.9512588488        3.6050686141       -1.4451585559
 C        -7.9661382300        1.1251823183        3.2075747566
 C        -6.0948096277       -0.1088355610        2.1071463795
 C       -10.8446963289       -5.2482813317        0.4582323367
 C        -8.4098725656       -5.5285337990        0.8898599624
 C        -8.0462786178       -0.4009864145       -3.4401029235
 C        -7.4360386377       -1.9334120893       -5.3411110498
 H        -5.0400475441       -0.5314324793       -6.2706306153
 H        -4.6972686500       -2.1605620014       -5.6028625634
 H        -3.6819564070       -0.6334513014       -5.3172267151
 H        -6.9316203597       -4.2242201062       -3.9000168835
 H        -8.5939291573       -3.5966425372       -3.8004784648
 H        -7.0072409090       -4.7725974053       -1.1709369396
 H        -8.0973813931       -5.7187922243       -2.0794306643
 H       -11.0780815075       -2.0691217539        0.8139491842
 H        -9.7687400122       -1.8532558068       -0.4857796855
 H        -9.0237782725       -1.1362961277        2.5314672134
 H       -10.0362746767       -0.0727939367        1.9399201703
 H        -6.5185160716        3.8956596848        1.2353288788
 H        -8.0699701471        3.5678290204        2.1081120314
 H        -7.9228243889        3.8867415170       -0.9187201091
 H        -8.3546842998        5.0542753310        0.1873685184
 H       -12.0759512331        5.2175829359        1.6085182290
 H       -12.9603721187        5.4975087182        0.0236634426
 H       -13.9475937270        7.2537864110        1.2072966681
 H       -12.5887500223        8.0199894480        0.3179748720
 H       -10.5125486782       11.9691642868        2.3768054802
 H       -12.0891886207       12.1335141069        2.9993251178
 H       -12.1012562996       12.1755068843       -0.0456555125
 H       -11.9998248052       13.7853502763        0.9246909139
 H       -16.7145000315       11.1396338380        0.8748466769
 H       -17.7029254361       11.9383447104       -0.3388414823
 H       -17.2326881486       12.8846105012        1.0695906376
 H       -16.0141039121       15.3635296057        0.0297298678
 H       -14.5463858152       15.5108616654        1.0122325469
 H       -15.7931916314       14.6820566497        1.6683280260
 H       -14.4007429212       14.4517517069       -1.8746649126
 H       -13.2362016285       13.3315314966       -1.4088494381
 H       -13.0622780665       14.9041233797       -0.8659030940
 H       -13.9846926758       10.1533413835        2.9692735762
 H       -13.0572556568       10.2154372388        4.4196294886
 H       -13.9202189910        8.6896372225        4.0911405818
 H       -10.9108102820        9.6289606875        4.8173093308
 H        -9.7025621491        9.1935721210        3.5038637810
 H       -10.6954733680        8.0448284377        4.6214556721
 H        -9.5891366078        3.7808340478       -2.7639878450
 H        -9.0229817987        5.3798770419       -2.1170550364
 H       -10.6359422429        5.3652177173       -2.9320466120
 H       -12.7256758831        4.3035602814       -1.3445222696
 H       -12.1546627580        2.6824588280       -0.9102570119
 H       -11.9690736667        3.2128190940       -2.4837921244
 H        -8.6992450872        0.4342896907        3.6057825036
 H        -8.4592412868        2.1461518737        3.1228335717
 H        -7.3068985839        1.2246378027        4.0020052530
 H        -5.3629464581        0.1786803639        1.3506189021
 H        -6.3597243983       -1.1116996618        1.9872818634
 H        -5.7781755260        0.0464748905        3.2112655652
 H       -10.8506453364       -6.2980995139        0.3163977653
 H       -11.3851773781       -4.6757762532       -0.2712396505
 H       -11.2009822745       -5.0082206033        1.4663688532
 H        -7.4084554876       -5.2054288089        0.8868031906
 H        -8.5919961714       -6.3288333580        0.2473371386
 H        -8.7805152078       -6.0395111715        1.8520184640
 H        -7.8869894022        0.0488201966       -2.5384929980
 H        -8.9911196512       -0.9124383759       -3.3802246374
 H        -8.0653386262        0.3746791990       -4.2071735922
 H        -7.5229005277       -1.1415277763       -6.0657248289
 H        -8.3759163113       -2.3684883829       -5.2598858934
 H        -6.8113905403       -2.6563882777       -5.7130793790
 Na       -5.7245442356       -0.1979419896       -1.1498751027
