117

 C        -4.7512103552       -1.2046096885       -5.3061848050
 C        -5.5515022535       -0.8807038591       -4.0265048670
 O        -5.1486068583       -0.0906655661       -3.2409265483
 C        -7.0727403759       -1.4714087072       -3.9866996736
 C        -6.9750658968       -2.5247520056       -2.8148077770
 O        -6.5524044197       -2.1796478525       -1.7817661177
 C        -7.7206175645       -3.8605604514       -3.0462640626
 C        -7.7799866666       -4.6439189880       -1.6868885047
 C        -9.2001064519       -4.2520521340       -1.1255116271
 O       -10.0448362348       -3.5948088764       -1.7198055560
 C        -9.5184965350       -4.6234152617        0.2908670363
 C        -9.4913665891       -3.2818172128        1.2800256990
 O        -9.0452010345       -3.3547994212        2.4124072148
 C       -10.0534958370       -1.9320413701        0.5750903902
 C        -9.6953826234       -0.6568473299        1.3592673880
 C        -8.3534879641        0.0086383063        0.9302900393
 O        -7.9690338487       -0.2245523679       -0.2094405180
 C        -7.3270663097        0.7999388031        1.7909942265
 C        -6.8393495217        2.0034163970        1.0392368135
 O        -6.0980360897        1.8054795987        0.0758275676
 C        -7.3404097852        3.4839951424        1.2768763857
 C        -8.1676121526        3.9753529260        0.0530773577
 C        -9.7755862158        3.6454674600        0.0267069780
 O       -10.3095974635        2.8197854729        0.7711023648
 C       -10.6268326729        4.4837588437       -0.9984583721
 C       -10.8001886101        5.7339526951       -0.1832631362
 O        -9.8397650571        6.5093204297       -0.1132729521
 C       -12.1580539151        5.8747085619        0.5537570640
 C       -12.6537285516        7.3366282896        0.9440085383
 C       -12.1361896965        7.7589306793        2.4145535647
 O       -11.9572187973        6.8696813736        3.1788823376
 C       -11.9377708267        9.2720241409        2.8862388209
 C       -11.7507753543       10.2416735870        1.7827413662
 O       -11.8822873572        9.9476018531        0.5721941116
 C       -11.6842284632       11.7606789482        2.0841475289
 C       -12.3652447474       12.6653342901        1.0199013716
 C       -13.7578827597       12.9204789110        1.3230753399
 O       -14.2871555838       12.6790427346        2.4047891130
 C       -14.5851687346       13.4917814028        0.1300442132
 C       -15.6763068473       12.5479014143       -0.5436871889
 O       -15.5715876461       12.3035669758       -1.7210784948
 C       -16.8988729194       12.0176344629        0.2150038572
 C       -15.3434393477       14.7688321580        0.6395763438
 C       -13.5877886249       13.9509813365       -1.0567850937
 C       -13.2703365616        9.3258150701        3.6656322592
 C       -10.7347822845        9.1438040235        3.7640750671
 C        -9.9334101753        4.7409125546       -2.3248640498
 C       -11.8958783549        3.5935331769       -1.2110663583
 C        -7.8369082813        1.1933231681        3.2830462007
 C        -6.1053579252       -0.2329155688        1.9883924212
 C       -10.9545821456       -5.2379407408        0.4812408325
 C        -8.4748763618       -5.7376446794        1.0118685612
 C        -8.0861946763       -0.4720622324       -3.4558109760
 C        -7.5343095847       -2.1418177071       -5.2866679590
 H        -5.2921904748       -1.0475390547       -6.2726068071
 H        -4.5607344012       -2.3554714343       -5.2596542182
 H        -3.9117047780       -0.6086319174       -5.4663701536
 H        -7.1245815491       -4.2951478166       -3.7758392440
 H        -8.6766495190       -3.6226684343       -3.4776360158
 H        -7.0481167258       -4.5705435600       -0.9349974256
 H        -7.8686602721       -5.7170987392       -1.9216137107
 H       -11.1699354711       -2.2164060723        0.4562640885
 H        -9.6511716769       -1.9096189569       -0.4015700559
 H        -9.8301433960       -0.6221636606        2.4073479093
 H       -10.4072590538        0.2342817097        1.2080436555
 H        -6.2959215472        3.9328026240        1.1103648091
 H        -7.9040448295        3.6263816601        2.1531138331
 H        -7.7670734028        3.6839585521       -0.8187863580
 H        -8.1068208823        5.0864644765        0.0260157637
 H       -12.2213430050        5.3223485283        1.5990855068
 H       -12.8540693936        5.4765780176       -0.1892640969
 H       -13.7809545490        7.2369826646        0.9797732726
 H       -12.5023465909        8.0998668391        0.1738589377
 H       -10.6006678640       12.0948984323        1.9726492477
 H       -12.0242571932       12.3227828056        3.0438580422
 H       -12.4854737640       12.0283905141        0.1001446032
 H       -11.8716552775       13.5757365980        0.7534791439
 H       -16.6150079135       11.0276882852        0.5099985677
 H       -17.8000501456       11.9366753153       -0.4649362677
 H       -17.2368086817       12.5200435336        1.1332849343
 H       -16.0047822337       14.9871544011       -0.1862585188
 H       -14.6532232901       15.5838900690        0.8942696700
 H       -15.8669636864       14.5501910799        1.6315073819
 H       -14.1836018310       14.2815527886       -1.8647004755
 H       -13.0239364880       13.1840755408       -1.5104878107
 H       -12.9649983184       14.7807884549       -0.7778951456
 H       -14.1169794780        9.1960055920        3.0003173105
 H       -13.4256757957       10.3215886252        4.1922418171
 H       -13.1982189679        8.5224340005        4.4767219040
 H       -10.8758180268        9.9348324612        4.4399571336
 H        -9.7748561824        9.3063209188        3.2752791597
 H       -10.7138651919        8.3807906702        4.6310078027
 H        -9.6941430275        3.7534241284       -2.7861570007
 H        -9.0212476619        5.2560687990       -2.0371440363
 H       -10.4760169037        5.4239270084       -2.9644821451
 H       -12.6751735718        4.3240189905       -1.5353319055
 H       -12.1935932518        3.1422440231       -0.2960546971
 H       -11.8408900566        2.7712943083       -1.8987446282
 H        -7.8727026226        0.4069800584        3.9853164416
 H        -8.7542553298        1.7789876980        3.3181092616
 H        -7.1335096994        1.9529075292        3.6392694988
 H        -5.3928001854       -0.1955363984        1.1108353512
 H        -6.6412749877       -1.2577695380        2.1169132647
 H        -5.6635107088        0.0481109404        2.8902175272
 H       -10.8834788109       -6.3278227716        0.2476099553
 H       -11.5733080754       -4.7127345185       -0.1909009800
 H       -11.2485988056       -5.1471607902        1.4875175161
 H        -7.7033810632       -5.1623371152        1.4764585401
 H        -8.0465761029       -6.4591767454        0.3395987729
 H        -9.0145178985       -6.2389323310        1.7475864744
 H        -7.7675165849       -0.1451598724       -2.4552956752
 H        -8.9972509818       -0.9880061908       -3.2781489686
 H        -8.1357878589        0.4273285814       -4.0694339397
 H        -7.6196462390       -1.4745517459       -6.1010486445
 H        -8.5435526788       -2.5255793126       -5.1673961880
 H        -6.8764005569       -3.0201771381       -5.5497280931
 Na       -5.6699094355       -0.1743649106       -1.0687579532
