117

 C        -4.8522572591       -1.4927162585       -5.0862272918
 C        -6.0013168350       -0.9988238123       -4.1473797941
 O        -5.7502498607        0.1506839195       -3.6608767117
 C        -7.2901721204       -1.7212831585       -3.9057942762
 C        -7.0527340139       -2.5437784142       -2.5993057694
 O        -6.2372350991       -2.1451284845       -1.7479588645
 C        -7.7010140932       -3.9460313731       -2.4920597475
 C        -7.9392146077       -4.1905660832       -1.0052626899
 C        -9.4048890293       -4.3100053544       -0.8152940996
 O       -10.2526512885       -4.3767002469       -1.6874190044
 C       -10.0508876915       -4.4333048501        0.8401231794
 C        -9.6985029936       -3.0671169060        1.4043653771
 O        -9.0182804209       -3.0815966884        2.3868052471
 C       -10.4030121667       -1.8011524401        0.8699420518
 C        -9.8874851889       -0.5715178949        1.5722839307
 C        -8.4988208169       -0.1550503555        1.0640844325
 O        -8.0708467418       -0.4457585579       -0.0422111483
 C        -7.6055322161        0.7528461001        1.9922655749
 C        -6.9018348064        1.9350452701        1.0465470857
 O        -6.0152325171        1.7098364363        0.2037226435
 C        -7.0879911398        3.3802753280        1.4737507746
 C        -8.0494960929        4.0490742484        0.4148245990
 C        -9.2618612117        3.2358969989       -0.0463551668
 O        -9.4820318677        2.1057613493        0.3449552071
 C       -10.3347443207        4.0736732194       -0.9153199607
 C       -10.5923406943        5.5960026115       -0.2489954030
 O        -9.6418573970        6.3406297477       -0.2366348102
 C       -11.9638972753        6.0831330497        0.2013340573
 C       -12.1696733790        7.5855396677        0.6419013975
 C       -11.4604652784        7.8165790710        1.9597839912
 O       -10.9118158160        6.8712005042        2.5789041084
 C       -11.4798593840        9.3379471939        2.8652843702
 C       -11.6962294722       10.6944698864        1.8436685506
 O       -11.7543519339       10.4458013752        0.6824687945
 C       -11.8559597056       12.1602279393        2.4620138170
 C       -12.3063242903       13.0154014874        1.2793458925
 C       -13.8995258256       13.0337148254        1.0242826817
 O       -14.5989325276       12.5243383246        1.8784633745
 C       -14.5419755999       13.6432239828       -0.2790596868
 C       -15.4864968667       12.4732584131       -0.8910408886
 O       -15.5191596140       12.3766301483       -2.0988572749
 C       -16.2876424059       11.5505387389       -0.0911967971
 C       -15.5010605853       14.8505188368        0.1885394643
 C       -13.6654955731       14.1484361400       -1.4483628406
 C       -12.8610285021        9.1151166566        3.4462590161
 C       -10.4395724625        9.6117814883        3.9050478147
 C        -9.7630962258        4.2522488089       -2.3112330005
 C       -11.6158198629        3.2850088915       -1.0588588789
 C        -8.1988452958        1.2957466975        3.2623254568
 C        -6.3668638896       -0.1160145274        2.5319493717
 C       -11.5467159921       -4.6119892486        0.7658020085
 C        -9.2947231203       -5.5143232822        1.6416139298
 C        -8.5183066273       -0.7710820066       -3.6013229450
 C        -7.6147438645       -2.5912067813       -5.1296564964
 H        -5.2710030128       -1.6656413834       -6.0964561280
 H        -4.5812862701       -2.4876928913       -4.8534708204
 H        -3.9575765859       -0.7355284109       -5.0344027003
 H        -7.0231513748       -4.6261684655       -3.0001328038
 H        -8.5618752211       -3.8188231672       -3.0055874078
 H        -7.6301765526       -3.4082328612       -0.3499397865
 H        -7.6276417731       -5.1325943009       -0.5499364859
 H       -11.4209938558       -1.8706034920        0.9969358149
 H       -10.2636077705       -1.8864759111       -0.1934159499
 H        -9.7431491701       -0.6448205768        2.6445930102
 H       -10.6304827022        0.2384250062        1.5655690261
 H        -6.1234055914        3.8100524938        1.2694434871
 H        -7.6885793540        3.2935621149        2.4138393338
 H        -7.6083720832        4.2473403332       -0.5877235313
 H        -8.2674855120        4.9664002754        0.8125706216
 H       -12.1140552088        5.2150574545        0.8666732983
 H       -12.7152098183        5.7669734450       -0.6874273114
 H       -13.2122502310        7.8035774470        0.5927803528
 H       -11.7993151246        8.2154696543       -0.2289060550
 H       -10.7694468187       12.4715830371        2.7977960013
 H       -12.6366541025       12.0259587869        3.2975508283
 H       -11.7863265758       12.7278316251        0.4098469184
 H       -11.9688111709       14.0613356316        1.3501383414
 H       -16.8497073737       10.9724270371       -0.8589577306
 H       -16.8448254336       11.8848908621        0.7789079897
 H       -15.7207567810       10.7109938613        0.2786263007
 H       -16.0839880925       15.2999924681       -0.6771826325
 H       -14.9309871544       15.7280776879        0.5198105159
 H       -16.1791939980       14.3641383842        0.8439852665
 H       -14.2179579524       14.1996165350       -2.3273587411
 H       -12.8385738205       13.4969874781       -1.6845597415
 H       -13.4558900948       15.1245364685       -1.2419221611
 H       -12.8770684296        8.4248036838        4.3449859759
 H       -13.5086000812        8.4372626031        2.8270938738
 H       -13.4601428513        9.9956132799        3.6178283212
 H       -10.9217411482       10.2765316625        4.6864295418
 H        -9.4390496047        9.9481349949        3.7949768708
 H       -10.2614958232        8.6922189007        4.3703695460
 H        -9.5218559729        3.2562020489       -2.6133377834
 H        -8.8909863459        4.9731200895       -2.3579634368
 H       -10.4970522050        4.6072555152       -3.0771665743
 H       -11.7792383940        3.2232733677       -2.1056810134
 H       -12.5096557963        3.7569103449       -0.6171970858
 H       -11.4905637858        2.2873109440       -0.7437520172
 H        -8.0674009092        2.3426232894        3.4676276170
 H        -7.7281484895        0.8384154304        4.1322076995
 H        -9.2206190541        1.1700167790        3.3388958182
 H        -5.6631928443       -0.3520067716        1.7376851427
 H        -6.7843788501       -0.8433160745        3.1943260097
 H        -5.6805403742        0.7578769319        2.9644910590
 H       -11.5796861272       -5.5633366876        0.3421281279
 H       -11.9515564973       -3.9155010968        0.0466051704
 H       -12.0404222746       -4.4631037495        1.7221492578
 H        -8.3382214398       -5.7156987092        1.3898090613
 H        -9.8119684514       -6.4107498975        1.5013495270
 H        -9.2997567554       -5.0842161400        2.6889439616
 H        -8.4090378284       -0.1847752910       -2.7015257710
 H        -9.3197844702       -1.4945497599       -3.4349732773
 H        -8.7729432345       -0.1643657190       -4.4307643409
 H        -7.6145102024       -1.8743742920       -5.9773513204
 H        -8.6004647239       -3.0179512605       -5.0810533323
 H        -6.8853159675       -3.3071838293       -5.3262988863
 Na       -6.1488917199        0.1963863616       -1.4571782219
