117

 C        -4.8913465756       -1.5642201170       -5.1705131728
 C        -6.0381728426       -0.8753711378       -4.2117271081
 O        -5.8418899862        0.2274110161       -3.7529996984
 C        -7.2401311186       -1.8055860886       -3.9132679686
 C        -6.9461284334       -2.6629009868       -2.6208951081
 O        -6.2654351623       -2.2004722718       -1.7408154747
 C        -7.7285900135       -3.9568569291       -2.2743478415
 C        -8.1065622583       -4.1203110660       -0.8639184319
 C        -9.5880281811       -4.4285603454       -0.6697242086
 O       -10.2789077288       -4.4489407090       -1.6415839161
 C       -10.1378043983       -4.4625726729        0.7891492649
 C        -9.6609574119       -2.9740282136        1.5036716340
 O        -8.8604264698       -2.8615560414        2.4261770217
 C       -10.3786860276       -1.8595439133        0.8283546288
 C        -9.9579815865       -0.4892237154        1.5834280555
 C        -8.5173379609        0.0375324793        1.1429326073
 O        -8.1348754682       -0.3932218134        0.1048169712
 C        -7.5310940843        0.9474462447        2.0760137838
 C        -6.8394413517        1.9181671702        1.1651068008
 O        -6.2080263057        1.6232774285        0.1716807086
 C        -7.0966548735        3.4651687966        1.4188759359
 C        -8.1157379711        4.1570293217        0.4459689076
 C        -9.2656119825        3.2760633960        0.0726512332
 O        -9.3702720650        2.0868106557        0.1684870417
 C       -10.3157946914        4.1189447509       -0.8646240230
 C       -10.3955115119        5.6382616928       -0.2422913221
 O        -9.5177091857        6.3890431159       -0.2256913729
 C       -11.8842388785        6.0263290113        0.2419859752
 C       -11.9753432031        7.5989528181        0.5447118838
 C       -11.2403496709        7.9176366436        1.8408764858
 O       -10.6909677248        6.9843602220        2.3976546568
 C       -11.6146907417        9.3120120651        2.7947883347
 C       -11.7397601486       10.5442792619        1.8176151719
 O       -11.6301224222       10.5315283389        0.5732594251
 C       -11.9098965102       12.1348474846        2.2919800340
 C       -12.3543371735       13.1540518218        1.2425991571
 C       -13.9374601262       13.0513318894        1.0385352048
 O       -14.5359036507       12.5368890667        1.9518665331
 C       -14.5806218609       13.5144317499       -0.2601629587
 C       -15.4291251347       12.4190461544       -1.0875222572
 O       -15.3994647774       12.4441164332       -2.2897914403
 C       -16.2481432459       11.5416715950       -0.1333746718
 C       -15.5631335886       14.7086686889        0.1895106887
 C       -13.5341526477       14.1045342660       -1.3116159193
 C       -12.8931812953        8.9534262855        3.5238647367
 C       -10.4770314024        9.7362703650        3.7590234425
 C        -9.6124966518        4.0486625224       -2.2131727924
 C       -11.7457176574        3.2692842298       -1.0027116271
 C        -8.1312081974        1.5406907831        3.4098975269
 C        -6.4367073483       -0.2650401682        2.5338727858
 C       -11.6901352010       -4.6041510065        0.7379018632
 C        -9.4760101336       -5.6815207820        1.5796136388
 C        -8.4797582105       -0.9943717647       -3.4575467205
 C        -7.5909824094       -2.7094354520       -5.1196631504
 H        -5.2200674333       -1.5921556413       -6.2068850051
 H        -4.7584545786       -2.6481351625       -5.0229129104
 H        -4.0241579949       -1.0656391851       -4.9986240611
 H        -7.1461595243       -4.7916297658       -2.6255688830
 H        -8.6416636901       -3.7923505040       -2.8515148860
 H        -7.8592597282       -3.2808279936       -0.1541813150
 H        -7.6724579501       -5.0101928387       -0.4659981981
 H       -11.3890562269       -2.0332189467        0.7931996782
 H       -10.0562169358       -1.9966637831       -0.2280337535
 H       -10.0643728703       -0.3733664441        2.6891736342
 H       -10.5833546828        0.3124056866        1.2271303253
 H        -6.1727702766        3.8625633639        1.0449327627
 H        -7.5417584584        3.5456154625        2.4045393230
 H        -7.7816625300        4.5352803155       -0.6105340172
 H        -8.3870919140        5.0572787145        1.0083353641
 H       -12.0769897834        5.2908182663        1.0753614925
 H       -12.5423180600        5.6290460384       -0.5044988186
 H       -13.0037776604        7.8941148136        0.5708926061
 H       -11.6381602704        8.1466246277       -0.2906396721
 H       -10.8183249814       12.2856696492        2.5822385798
 H       -12.5918300215       12.1340400787        3.0711674048
 H       -11.9139308000       13.0676138418        0.3014920600
 H       -11.9403401330       14.1322682453        1.5088270546
 H       -17.2454442643       11.3823845023       -0.5338271658
 H       -16.1821970835       11.6920768304        0.8874826860
 H       -15.9590608228       10.4735574622       -0.2925790394
 H       -16.0628759836       14.9647146858       -0.7933247313
 H       -14.9906922253       15.6608948101        0.2968207485
 H       -16.3432653301       14.3827479730        0.8980048643
 H       -14.0137190503       14.1498048338       -2.3198128771
 H       -12.6937303953       13.4771490184       -1.4119837479
 H       -13.3421427700       15.1777038823       -1.1033298271
 H       -12.7722153079        8.4347125598        4.4953940451
 H       -13.5773486886        8.2417259041        3.0467172248
 H       -13.5174399612        9.9251812756        3.6499443238
 H       -10.8627877415       10.5220820706        4.2455387918
 H        -9.5511816840        9.9789279233        3.4654916769
 H       -10.2120728230        8.9516800404        4.5069800330
 H        -9.4973353575        3.0948170178       -2.6462145796
 H        -8.7821057166        4.6796809364       -2.2247778323
 H       -10.3420164757        4.6453934536       -2.8450356568
 H       -12.0736086264        3.3364542303       -1.9918225243
 H       -12.5588481242        3.5382151594       -0.3371335663
 H       -11.4478116441        2.2077727638       -0.8789845939
 H        -7.4987889828        2.2712840657        3.8904932896
 H        -8.1564129747        0.6733720841        4.1927718426
 H        -9.0901313859        2.0203124080        3.3259221554
 H        -5.6361578981       -0.2359422789        1.8006473133
 H        -7.0690624786       -1.1189439716        2.6823034466
 H        -5.8589995353        0.1241685573        3.3814646041
 H       -11.8588702100       -5.6326501710        0.6845708936
 H       -12.0110767460       -4.1688338123       -0.2168442159
 H       -12.1735201248       -4.0502097941        1.5288888332
 H        -8.5231086666       -6.2060748915        1.3689521210
 H       -10.2157542733       -6.4559718403        1.5353598782
 H        -9.4695252014       -5.1766853230        2.5848303404
 H        -8.3903885555       -0.4651500080       -2.5313257391
 H        -9.3072243310       -1.7581649024       -3.4052048478
 H        -8.7685057837       -0.3072072743       -4.3318942223
 H        -7.6462533212       -2.0086395918       -6.0144809054
 H        -8.6017024105       -3.1783087113       -4.9977806438
 H        -6.7864255983       -3.4527687374       -5.3574004716
 Na       -6.3686798399        0.2080070805       -1.4501872674
