117

 C        -5.0317034786       -1.3787690200       -5.2796301907
 C        -6.0580570267       -1.0956367895       -4.2754655398
 O        -6.1399957410        0.0453358987       -3.7343217635
 C        -7.2814140457       -2.0229855716       -3.8064707472
 C        -6.8998647634       -2.7730650107       -2.4865153690
 O        -6.1608709903       -2.1925498153       -1.6838196475
 C        -7.6287956116       -4.0979359207       -2.1653252768
 C        -8.1839534818       -4.0727651268       -0.6716651993
 C        -9.6854680166       -4.2969919023       -0.5411341094
 O       -10.3974913980       -4.6452091164       -1.4411833921
 C       -10.2889105683       -4.2506896806        0.9107548109
 C        -9.7771613493       -3.0366325389        1.5185092170
 O        -8.8030492876       -3.0098275187        2.2038260538
 C       -10.4178670548       -1.6218733707        1.0298045447
 C       -10.0561749286       -0.3983178698        1.6837983129
 C        -8.5988241073        0.0942918540        1.2176026563
 O        -8.1443541445       -0.3730938106        0.1621693750
 C        -7.5625966212        0.8905385399        2.1541039569
 C        -6.9406461876        2.0075434045        1.2343904617
 O        -6.3096898422        1.6285649179        0.2282879933
 C        -6.9331328829        3.4563534464        1.5537367897
 C        -7.9499524277        4.2841177053        0.7754742083
 C        -9.1634301839        3.5042559506        0.0365692652
 O        -9.2130754172        2.2672773106        0.2182987399
 C       -10.2704736708        4.1859900559       -0.7656278799
 C       -10.4304530972        5.6430566091       -0.4481820853
 O        -9.4493393471        6.4358045043       -0.5632991950
 C       -11.8047574742        6.2279750540        0.1568280289
 C       -11.6068757176        7.6487677096        0.4505274715
 C       -11.0618383079        8.1011408691        1.8584510260
 O       -10.0582010641        7.5625642499        2.3648204857
 C       -11.5902299389        9.3266193235        2.5270853740
 C       -11.7722654086       10.4811228876        1.4605231720
 O       -11.5482513038       10.3901232139        0.2907955107
 C       -11.9630104974       11.7393819972        2.1608942994
 C       -12.3553860397       12.8501544847        1.2534844367
 C       -13.8866547760       12.9755035176        1.1146250735
 O       -14.7204657686       12.5929943081        1.9246717599
 C       -14.4566014286       13.4443546065       -0.3281949377
 C       -15.1957323234       12.3002553382       -1.1469865364
 O       -15.1825115528       12.4224637279       -2.3454082735
 C       -16.2884818001       11.4375923122       -0.5112719242
 C       -15.6511054253       14.4503676717        0.0621287529
 C       -13.3713580771       14.1994844208       -1.1104038434
 C       -12.9179100477        8.9976016878        3.2984030525
 C       -10.4478870470        9.7132879451        3.4697078303
 C        -9.7153173010        4.1365852930       -2.2745363260
 C       -11.5927855006        3.3678664424       -0.6836076438
 C        -8.2990897424        1.3855913649        3.4947634476
 C        -6.5241419535       -0.1921821466        2.5091590210
 C       -11.9028909136       -4.3381305678        0.9900304708
 C        -9.7855966313       -5.5585709542        1.7006958206
 C        -8.5793492604       -1.2059875282       -3.5600928796
 C        -7.5511225880       -2.9637818050       -4.9431062198
 H        -5.4264815233       -1.2485222406       -6.2844667713
 H        -4.7120598524       -2.3857187175       -5.2256615015
 H        -4.1053952801       -0.7804355020       -4.8844499115
 H        -6.7516070877       -4.8123339136       -2.2351974256
 H        -8.3748482732       -4.1922797433       -2.9846540303
 H        -7.9125824638       -3.2273131136       -0.0604460592
 H        -7.7186348064       -4.9893676202       -0.1820247773
 H       -11.5628129089       -1.7001007555        1.0673101654
 H       -10.1916878735       -1.5300051632       -0.0728107184
 H        -9.8669695004       -0.4862842170        2.7514824384
 H       -10.7597813891        0.5383747185        1.5835829550
 H        -5.9962326967        3.8835653569        1.2044727311
 H        -7.0965760912        3.4156957392        2.6537986125
 H        -7.4350150502        4.8245091953        0.0344990381
 H        -8.3045562151        5.0204689776        1.4763024690
 H       -12.1914470295        5.7386528698        0.9700235643
 H       -12.5181032244        5.8705663993       -0.6372265377
 H       -12.4916610650        8.1309510786        0.0215201092
 H       -10.8120733610        8.1246444012       -0.2245385824
 H       -10.9495261158       11.7810022204        2.4903479536
 H       -12.7638191652       11.5830244999        2.9641161690
 H       -11.9415564453       13.0548180129        0.2316561995
 H       -11.9322636191       13.7713153093        1.7275238928
 H       -16.9762787287       12.0354254208        0.0978330352
 H       -15.7272355798       10.8357377003        0.2463744462
 H       -16.9800279327       10.8286181003       -1.0131330771
 H       -16.2700529252       14.8329720426       -0.7338452764
 H       -15.1674479032       15.2901878498        0.5346033639
 H       -16.2320753317       13.8282912535        0.7279057061
 H       -13.9481450487       14.9601020346       -1.6564214553
 H       -12.7984006231       13.5211823878       -1.8698396847
 H       -12.6807136029       14.8168888281       -0.4791272750
 H       -13.0700346599        8.1073276711        3.9168447331
 H       -13.7720108904        9.0616717254        2.6052195239
 H       -13.1463449812        9.8199850977        3.8633739929
 H       -10.8225338298       10.7347271659        4.0022677883
 H        -9.5752591313       10.1776674058        2.8789701144
 H        -9.8889579425        9.1078115650        4.1515195579
 H        -9.4875681911        3.0525951901       -2.5512630195
 H        -8.7630563477        4.8056831088       -2.2332041557
 H       -10.3170304656        4.6461174271       -3.0130345844
 H       -12.3749875487        4.1463488687       -0.8774029368
 H       -11.7564024732        3.1106691175        0.3840440766
 H       -11.7515093403        2.5138121671       -1.3097958291
 H        -8.0249133889        0.7868945313        4.4055691266
 H        -9.3597657259        1.4540175394        3.4699461185
 H        -7.9730266977        2.3845548393        3.7872940133
 H        -5.9337178606       -0.3175361768        1.6561563278
 H        -7.1796001739       -0.9571018146        2.7565019246
 H        -5.7926815353        0.0800272570        3.3579352870
 H       -12.2712220806       -5.3840311278        1.1619046105
 H       -12.3677786063       -3.8811481740        0.1155160911
 H       -12.0549447073       -3.6367036387        1.8352735603
 H        -8.7700326078       -5.6436070534        1.3908112327
 H       -10.2406072735       -6.4166833535        1.1597587721
 H        -9.7481948374       -5.5331154583        2.8147209402
 H        -8.4246023577       -0.5432035133       -2.6943803613
 H        -9.4937958218       -1.7991148533       -3.4391867294
 H        -8.7113842809       -0.6317376382       -4.4488831444
 H        -7.7740515345       -2.4001795208       -5.8517174336
 H        -8.4247158721       -3.5782221158       -4.7107894027
 H        -6.7115868551       -3.5853646969       -5.1578066878
 Na       -6.7101867371        0.0519005152       -1.4702655793
