117

 C        -5.6739194450       -1.2084491848       -5.4233157468
 C        -6.5386507027       -1.2385874659       -4.1717374969
 O        -6.3341629926       -0.3126788261       -3.3345946446
 C        -7.3970704147       -2.4632943556       -3.8430553597
 C        -7.2148185694       -2.8704309381       -2.3123864197
 O        -6.5662755057       -2.2384438878       -1.5006844592
 C        -7.8281123948       -4.2810796674       -1.8686994871
 C        -8.2601744094       -4.2995738863       -0.3434674370
 C        -9.8029395087       -4.3072316075       -0.2787392908
 O       -10.2932509199       -4.5691520271       -1.3554343980
 C       -10.6193784105       -4.1592708058        1.0669614336
 C       -10.0286101668       -2.8149272640        1.5919904277
 O        -8.9159055377       -2.7109784823        2.0477810060
 C       -10.9084661640       -1.4942777073        1.6090215129
 C       -10.1774194375       -0.2461623298        2.1657796659
 C        -8.7858052086        0.0425295039        1.5021846102
 O        -8.4373025644       -0.4922795104        0.4658187139
 C        -7.6977964734        0.9552411425        2.1400517718
 C        -7.0976764245        2.0740811612        1.1546060152
 O        -6.4779942430        1.8066016164        0.0958332399
 C        -6.9193909776        3.5756395441        1.6104712633
 C        -7.7132067896        4.4398319830        0.6610093974
 C        -8.8992596395        3.5879470141        0.1824668674
 O        -8.9110573654        2.3521771492        0.3497114726
 C        -9.9743704114        4.2061023697       -0.7625318210
 C       -10.1329642425        5.7738018204       -0.6456327256
 O        -9.3133645885        6.5332043252       -1.0543017690
 C       -11.4499549458        6.3881593712        0.0884893471
 C       -11.3394730302        7.8854560186        0.1292239003
 C       -10.6806626660        8.3053278183        1.4559773302
 O        -9.6290522968        7.7865758403        1.8273636395
 C       -11.3311633080        9.3451370154        2.3746933448
 C       -11.6332963199       10.6517899301        1.5538320199
 O       -11.4179625434       10.5867591854        0.3884075205
 C       -11.8462974714       12.1453176528        2.1103341776
 C       -12.4818566435       13.1675177436        1.0216854198
 C       -14.0108984109       12.9474596675        0.7871651613
 O       -14.6802219591       12.2811300761        1.5641380559
 C       -14.5969729182       13.6575821348       -0.4671336910
 C       -14.9622144459       12.3684560449       -1.3570396346
 O       -14.3900444142       12.1896534663       -2.3950920806
 C       -16.0963497233       11.5070699194       -0.8881129853
 C       -15.9700716964       14.3481817323       -0.0880152699
 C       -13.8212207210       14.7044466853       -1.2963160058
 C       -12.5813713151        8.7090922834        3.0742553118
 C       -10.2618113900        9.5132249543        3.4536773753
 C        -9.5271995362        3.7468977881       -2.1481584341
 C       -11.4035651994        3.6260313429       -0.3831310357
 C        -8.1249968653        1.3397841862        3.5831166874
 C        -6.4169941094       -0.0976003320        2.3623909663
 C       -12.0506989658       -4.3882397884        0.6392753767
 C       -10.0649863131       -5.2889956733        1.9773007338
 C        -8.8714549408       -1.9781696884       -3.8181782896
 C        -7.2318768468       -3.6457361590       -4.8595022591
 H        -6.2447644116       -1.3939704334       -6.3429447481
 H        -5.0044943301       -1.9903072244       -5.1995923887
 H        -4.9610737228       -0.3990062514       -5.4734243278
 H        -7.0416698577       -5.1012933938       -2.1854126874
 H        -8.7189842326       -4.3486331035       -2.5390777113
 H        -7.7949128090       -3.5007420049        0.2239584201
 H        -8.0228031025       -5.2933425292        0.1715350289
 H       -11.8978477523       -1.5472017040        2.0510208528
 H       -11.0291638493       -1.2287337257        0.4594254598
 H        -9.9905980845       -0.2460001576        3.2584838664
 H       -10.8395609296        0.6539886488        1.7902511578
 H        -5.8630496541        3.6370116704        1.5973135107
 H        -7.0605503778        3.7728177046        2.7131302520
 H        -7.0986561400        4.5793892774       -0.2918868077
 H        -7.9808009348        5.3900896854        1.0240878011
 H       -11.3506756653        5.9036262998        0.9688777026
 H       -12.3704691210        6.0539052719       -0.4081429926
 H       -12.2920624913        8.3256358238       -0.0427939399
 H       -10.7433342391        8.1313519674       -0.7935999185
 H       -10.8108692280       12.3652003125        2.3891722760
 H       -12.4870717169       11.9606480934        2.9293797746
 H       -11.9071423624       13.3615512471        0.0840403451
 H       -12.2774878258       14.1973115050        1.3892178711
 H       -15.8859703723       10.9623339946        0.0348715080
 H       -16.0561121685       10.6999404490       -1.5831751917
 H       -17.1116903122       11.8092883053       -0.7736025920
 H       -16.6674967927       14.7398568036       -0.8983388631
 H       -15.6695047317       15.0606949904        0.7075291469
 H       -16.4647193117       13.6441612069        0.5602766150
 H       -14.2365560527       14.6106549639       -2.3191994219
 H       -12.7089583038       14.5374245130       -1.3526126576
 H       -13.8546552021       15.6959505194       -0.7888851886
 H       -12.1781312332        7.8257631448        3.6283499982
 H       -13.3910343490        8.3684659442        2.3856858514
 H       -13.0610481888        9.1622325313        3.8780864596
 H       -10.4791217758       10.2532060729        4.2460809205
 H        -9.2825882712        9.7424521729        3.0634985552
 H       -10.2669678391        8.4941102707        4.0760160118
 H        -9.4194631443        2.6661250803       -2.0452843573
 H        -8.5047366339        4.1027739341       -2.3952071919
 H       -10.2754510841        4.0292900476       -2.8904637726
 H       -11.9714069375        3.5971518546       -1.3031893430
 H       -12.0265349291        3.9032736809        0.4952644050
 H       -11.2136143647        2.5817829989       -0.3082635826
 H        -7.8269170361        0.6234743888        4.4008477888
 H        -9.2444695186        1.5167384805        3.7534063524
 H        -7.6273386329        2.2396611963        3.8704518767
 H        -6.1855835320       -0.5193332113        1.4356281908
 H        -6.8866574295       -0.7982501969        2.9108017100
 H        -5.5988546539        0.3237386489        3.0483859400
 H       -12.1795801085       -5.4267325055        0.4188018659
 H       -12.3830277731       -3.7748734755       -0.1797298356
 H       -12.5957692396       -4.3122642641        1.5964550782
 H        -9.1976720395       -4.9970674020        2.5725496221
 H        -9.8315015654       -6.1451506144        1.3014240716
 H       -10.8821245782       -5.8708556901        2.6448169904
 H        -8.9864241265       -1.0884103316       -3.1698161757
 H        -9.5581374284       -2.8097018095       -3.4174773980
 H        -9.2769978141       -1.8596909520       -4.8563377122
 H        -7.4223104752       -3.4312400459       -5.9954622148
 H        -7.9231493817       -4.4869246851       -4.5380686236
 H        -6.2216990020       -4.0844248365       -4.7420440397
 Na       -6.6683346454       -0.0975450131       -0.9377455304
