117

 C        -6.0803502974       -1.1985543445       -5.3903098886
 C        -6.6904518914       -1.2868081791       -4.0713380028
 O        -6.6041082279       -0.4349008946       -3.2492859056
 C        -7.4025248120       -2.6538584877       -3.7491428072
 C        -7.1916285914       -3.1937652920       -2.1362527933
 O        -6.7416145696       -2.4586960798       -1.2239533362
 C        -7.5708612372       -4.6526103928       -1.7771670284
 C        -8.3563219114       -4.5969403604       -0.4838403737
 C        -9.8131021196       -4.3747486486       -0.4486943700
 O       -10.5605411422       -4.3703365419       -1.3707120386
 C       -10.6332244821       -4.0423703005        1.0674355778
 C       -10.0500034705       -2.7075543934        1.6506399027
 O        -9.0087026739       -2.7244854481        2.3113798859
 C       -10.8745498172       -1.4333119978        1.5893032936
 C       -10.1656400305       -0.1621650229        2.2728902847
 C        -8.8035303192        0.0786641268        1.5528836240
 O        -8.5987549410       -0.3947030119        0.4419698000
 C        -7.4550970335        0.9164693737        2.2828999528
 C        -6.9410775666        2.0161776221        1.3240142802
 O        -6.3318035186        1.5813610032        0.3533093280
 C        -7.0255840069        3.6060078290        1.6024939659
 C        -7.7044326280        4.3191657334        0.4314941451
 C        -9.1002874502        3.6407776575        0.2059925870
 O        -9.3125652925        2.5946533001        0.7697633147
 C       -10.2058442231        4.1977197675       -0.8988079223
 C       -10.1755468414        5.8090046708       -0.8999748731
 O        -9.0577178156        6.2856865984       -1.2612605376
 C       -11.3871824029        6.5178891987       -0.3106075228
 C       -11.2648836421        8.0828571764       -0.0328675853
 C       -10.5345977955        8.3737402380        1.2731598537
 O        -9.4866009489        7.9202931327        1.6171383475
 C       -11.2496076747        9.5693899958        2.3176139165
 C       -11.4906065289       10.8287789048        1.4951297724
 O       -11.2238440970       10.7777391995        0.3253562993
 C       -12.0414375102       12.1157532821        2.1496959970
 C       -12.3391715086       13.0863097940        1.1408534514
 C       -13.8536732152       12.9711902086        0.7795055215
 O       -14.5583459114       12.1978142009        1.4278844981
 C       -14.6415848264       13.5671527831       -0.4835993241
 C       -14.8741388395       12.3704127563       -1.4676581633
 O       -14.1009403573       12.2483551945       -2.3918610976
 C       -16.0374939854       11.3971831714       -1.3580911535
 C       -15.9834610115       14.1130690617        0.0694807509
 C       -13.8699906387       14.7599421817       -1.1558605353
 C       -12.4594180022        9.0123184167        2.9856220953
 C       -10.3297504463       10.0335301919        3.3921183162
 C        -9.4767607175        3.7754931720       -2.2954982373
 C       -11.4975385657        3.4542883283       -0.6816669450
 C        -7.7463891317        1.5094546097        3.6654639429
 C        -6.4080844182       -0.2297917625        2.3809875463
 C       -12.1653718474       -4.0212032734        0.9073122237
 C       -10.1427213988       -5.2329180291        2.0363137400
 C        -8.8819185939       -2.2872563841       -3.8918299099
 C        -7.0337029865       -3.8646925114       -4.6231566919
 H        -6.8722727703       -1.3460356513       -6.1178912614
 H        -5.1610849408       -1.8327964801       -5.5073231603
 H        -5.6488894123       -0.1161222285       -5.5023120699
 H        -6.6893329220       -5.0193666604       -1.4210120008
 H        -7.8721025383       -5.1575745444       -2.6654853375
 H        -8.0726991179       -3.6985982576        0.1170029181
 H        -8.0659038092       -5.3990436273        0.1299008255
 H       -11.7285651809       -1.5023230032        2.3105745079
 H       -11.2390472256       -1.2051705138        0.7005929954
 H        -9.9697813100       -0.2809476482        3.3670824560
 H       -10.8638136536        0.5434793339        1.9564656247
 H        -5.9796504627        4.0282864137        1.8969418537
 H        -7.4051641758        3.7920227765        2.6073492546
 H        -7.0813851092        4.1994243701       -0.3884524483
 H        -7.8064476487        5.4642697491        0.6229378275
 H       -11.4608642325        5.8631985072        0.7200000084
 H       -12.2317282893        6.2613721836       -1.0073851399
 H       -12.3214129053        8.4921555672       -0.2215399706
 H       -10.6046319682        8.7109301336       -0.6758890101
 H       -11.2348976400       12.3559586133        2.8845541896
 H       -13.0957685055       11.8674475876        2.6688290784
 H       -11.7583214507       13.1984459001        0.2405373902
 H       -12.0615647067       14.0735205963        1.5395072313
 H       -16.3094833366       10.8998754192       -0.4352156796
 H       -16.1388958017       10.5435102427       -2.1042923527
 H       -16.9265556927       11.9576048390       -1.6403061189
 H       -16.5905850162       13.9245059680       -0.7557977680
 H       -16.0530440786       15.1291547685        0.3351616542
 H       -16.3828983264       13.6573773045        0.9804764352
 H       -14.2699551194       14.8729805193       -2.1486705254
 H       -12.7966866205       14.5532857577       -1.2826222015
 H       -13.8795318741       15.6296637427       -0.5151362290
 H       -12.3830260170        8.6922306896        3.9821674355
 H       -13.2037246271        8.3490123675        2.5656241751
 H       -12.9630153257        9.9730041087        3.2341246860
 H       -10.9156433815       10.7382023611        4.0907929156
 H        -9.5168714258       10.6770507645        2.9815562603
 H        -9.9896355820        9.3733029510        4.0684576752
 H        -9.3333034543        2.6431413371       -2.2412585310
 H        -8.4115624508        4.1201180681       -2.3003427065
 H       -10.1533613693        4.1512599295       -3.0700950155
 H       -12.3658920592        3.9228553959       -1.2153264799
 H       -11.7435066849        3.5542629652        0.3586663052
 H       -11.5593979522        2.3885097438       -1.0295464910
 H        -8.0847868433        0.6738605466        4.2397904765
 H        -8.5435059056        2.1368037205        3.7064682952
 H        -6.8927371518        2.0461920321        4.1940476154
 H        -5.8686382581       -0.2066236397        1.4140020978
 H        -6.7437625966       -1.3257803048        2.5880050081
 H        -5.9640816657        0.1279972019        3.2723688506
 H       -12.4751275821       -5.1028666450        0.9753973138
 H       -12.3812375629       -3.7229038240       -0.1320374135
 H       -12.7221235711       -3.5805029685        1.7062573599
 H        -9.1098113062       -5.4690548678        2.2196993152
 H       -10.7453115071       -6.0852118402        1.9427557145
 H       -10.5687304643       -4.9528847208        2.9101051683
 H        -9.1021018087       -1.5175361982       -3.1426226586
 H        -9.5506948160       -3.0787726402       -3.7590585504
 H        -9.0822895000       -1.8961705352       -4.8763218189
 H        -7.4105627827       -3.6517720435       -5.5522324229
 H        -7.4995592547       -4.7756962366       -4.3874366084
 H        -5.9801282120       -4.0408015586       -4.7434572479
 Na       -6.6989086210       -0.2452256867       -0.8839390245
