117

 C        -6.2899058232       -1.2251358165       -5.4066641331
 C        -6.7046941072       -1.3877959221       -3.9391571814
 O        -6.7318049600       -0.4543637653       -3.1445928120
 C        -7.4182709375       -2.7657887123       -3.5806734429
 C        -7.2077127075       -3.3697593259       -2.1294679787
 O        -6.7887908624       -2.6475208372       -1.2068235337
 C        -7.5717238055       -4.7837450556       -1.6790644149
 C        -8.3748653854       -4.7163194744       -0.3434257574
 C       -10.0178752417       -4.2119617937       -0.3925028395
 O       -10.6335162728       -4.2560545766       -1.3927330569
 C       -10.6093277382       -3.9772471406        1.0701074894
 C        -9.9926544102       -2.7074296017        1.7853906434
 O        -8.9634390646       -2.6607236051        2.4158820502
 C       -10.8673799508       -1.3787846639        1.5949129624
 C        -9.9498919212       -0.2442913003        2.3218304033
 C        -8.7207831525        0.0945048969        1.5861187671
 O        -8.5103948669       -0.1631101025        0.3715175889
 C        -7.5008317304        0.8085485064        2.2918553055
 C        -6.9005471527        1.8816441796        1.3293235626
 O        -6.2442473562        1.7219695273        0.2891017572
 C        -7.1148424408        3.3338459409        1.5945591484
 C        -7.7689049904        4.0849174534        0.4517276380
 C        -9.1218931376        3.5433473666        0.2126784309
 O        -9.7004959335        2.7818399481        1.0341728620
 C       -10.0936152833        4.1409314070       -0.9430965902
 C       -10.0926058271        5.7362443895       -0.9482116608
 O        -9.0725778075        6.2959053617       -1.3450121362
 C       -11.3701409045        6.4917000517       -0.4935884547
 C       -11.2631170792        8.0805869097        0.0032833463
 C       -10.4139479642        8.5259098091        1.3608874841
 O        -9.4113792696        7.8993238420        1.6516409347
 C       -11.1146720485        9.7291060753        2.2177974905
 C       -11.4009584212       10.9110357333        1.3179954435
 O       -11.1895052223       11.0435735755        0.1589297545
 C       -12.0258311546       12.1447649241        2.1131211235
 C       -12.5290696481       13.1342589057        1.0515664968
 C       -13.9866917561       12.8778563689        0.7205199974
 O       -14.6005342879       12.0889127007        1.4412952070
 C       -14.6479912208       13.5985333849       -0.4540022966
 C       -14.7680449694       12.3940947548       -1.5244213689
 O       -13.9600014822       12.2779789978       -2.3917911279
 C       -15.9611167930       11.3352693949       -1.6003294587
 C       -15.9481692513       14.0970930548        0.1604852942
 C       -13.7815856022       14.7268878954       -1.0520094474
 C       -12.4610545441        9.1140451334        2.7726291821
 C       -10.1216958657       10.1471467184        3.4909860021
 C        -9.6068195292        3.8187457397       -2.5164994886
 C       -11.4761384269        3.5460568968       -0.8497805688
 C        -7.8080479697        1.4822129846        3.6674567576
 C        -6.3557359547       -0.3323245081        2.5077212331
 C       -12.0733094154       -3.8110239307        0.9586981937
 C       -10.2328943206       -5.1346127189        2.0405147622
 C        -8.9259244856       -2.4896600719       -3.8141127553
 C        -6.8753015716       -3.8643571681       -4.5730572871
 H        -7.1160424809       -1.4471738173       -6.0830516302
 H        -5.3937629128       -1.7969664054       -5.5414811708
 H        -5.9106207330       -0.1706661440       -5.6341948199
 H        -6.7156198860       -5.3804448785       -1.5366973090
 H        -8.1641412386       -5.2211007227       -2.4551248508
 H        -7.9679004863       -4.3282266760        0.5483494268
 H        -8.4707375577       -5.7818392167       -0.1827241006
 H       -11.8619771098       -1.1940441153        2.0537722645
 H       -10.9202471031       -1.1489612377        0.5037871250
 H        -9.6190508049       -0.6078720775        3.2416400516
 H       -10.5802195706        0.6784683615        2.2728600397
 H        -6.2040714120        3.8533335965        1.8117103807
 H        -7.5092181882        3.5104237971        2.5583572217
 H        -7.0540420100        3.9493321884       -0.4651163978
 H        -7.7421671600        5.1987082834        0.7175750236
 H       -11.8741668146        5.9059997749        0.2234153492
 H       -11.9072875091        6.5482565040       -1.4812435409
 H       -12.3049019356        8.2180529375        0.0975193726
 H       -10.9348767632        8.8800804756       -0.6444745274
 H       -11.2834111466       12.4373326410        2.7513577807
 H       -12.9201025380       11.8487172308        2.6394536146
 H       -11.9306893490       13.1177914868        0.1161121490
 H       -12.3388436741       14.1515796294        1.2321385401
 H       -16.4098451365       11.0712260065       -0.6223546860
 H       -15.7460427771       10.3217547167       -2.0118741239
 H       -16.7576397727       11.6111448387       -2.2252372295
 H       -16.6725309674       13.9350034958       -0.6472871749
 H       -16.0996451530       15.1086822009        0.5125061819
 H       -16.2494852839       13.5058812466        1.0130283444
 H       -14.3790808035       15.1507670267       -1.7826569217
 H       -12.8622697843       14.4267695362       -1.5699067135
 H       -13.5375492205       15.4198775521       -0.3266906213
 H       -12.3918923135        8.5804514711        3.7428122702
 H       -13.1295858363        8.4100542023        2.1905314176
 H       -13.0495723935        9.9362821577        3.0670954428
 H       -10.7957172351       10.4341494932        4.2404772796
 H        -9.4775695554       10.8855692462        3.3624336008
 H        -9.6816387494        9.3096740525        4.0022176033
 H        -9.3633885354        2.7617400861       -2.7332176627
 H        -8.6395590061        4.3893466329       -2.7065686575
 H       -10.4985089226        4.1779820164       -2.9739431486
 H       -12.3580406751        4.1200908220       -1.2411589748
 H       -11.6791924750        3.5475119028        0.2250245017
 H       -11.5794103853        2.5566911800       -1.2284161340
 H        -8.4301439568        0.8337478646        4.3396653973
 H        -8.2929755287        2.4567938110        3.7035374682
 H        -6.8516189839        1.6888649962        4.1206453808
 H        -5.8780401342       -0.5053554058        1.5632838051
 H        -6.7634225334       -1.2694122445        2.8228174715
 H        -5.8795772031        0.1307171742        3.4761950464
 H       -12.4888251922       -4.8474725038        0.8585610719
 H       -12.2792784495       -3.3348413586        0.0382251818
 H       -12.5609258517       -3.4290357379        1.8569062004
 H        -9.2874702969       -5.5271693368        1.9262793165
 H       -10.9311133753       -5.9292533906        2.1166985704
 H       -10.3168575814       -4.7623884387        3.1259668245
 H        -9.3453741786       -1.7627548903       -3.1543610717
 H        -9.5156504150       -3.3742452855       -3.7414218371
 H        -9.0018609883       -2.0903820819       -4.7784430179
 H        -7.0765227311       -3.4724503970       -5.5549263129
 H        -7.3553516287       -4.8025325671       -4.5981804906
 H        -5.8700006429       -4.0096314097       -4.5142069126
 Na       -6.7809717667       -0.2389390437       -0.8676321079
