117

 C        -6.5716952995       -1.1427822461       -5.2879434542
 C        -7.0179324019       -1.5025875540       -3.8107857705
 O        -6.8593533968       -0.6917644435       -2.9491023669
 C        -7.4646464616       -2.9973345867       -3.5018610272
 C        -7.2854393004       -3.4024645857       -1.9233602685
 O        -6.7881891909       -2.7448447881       -1.0256303354
 C        -7.9686958178       -4.7273601947       -1.6112598223
 C        -8.5634964557       -4.9793448004       -0.2840627624
 C        -9.8910992414       -4.1798896927       -0.1857182525
 O       -10.4495698474       -3.7929216042       -1.2407670511
 C       -10.5555804173       -3.9202814988        1.1724624867
 C        -9.9025749786       -2.6265962360        1.8196117463
 O        -8.8209337905       -2.7587740449        2.3853245706
 C       -10.5545198045       -1.2692776251        1.6298018844
 C        -9.8782060199       -0.1599914989        2.3868100599
 C        -8.6098343152        0.2424775447        1.4876824333
 O        -8.5844547533        0.0981737487        0.2922900799
 C        -7.3540191829        0.7485428935        2.3885311202
 C        -6.8166536714        1.8207734170        1.4068272601
 O        -6.2024289074        1.4681815534        0.3907558404
 C        -7.1960225161        3.3237317832        1.5055649844
 C        -7.9315329239        3.8240770343        0.1613756915
 C        -9.5143625256        3.7358138002        0.2405204098
 O       -10.0834111558        3.1629496843        1.1196063138
 C       -10.2325046174        4.3348819268       -1.0511026898
 C       -10.0919590699        5.8486256826       -1.0615428551
 O        -8.9674629013        6.3623760526       -1.2490447182
 C       -11.2669575239        6.6306106123       -0.3616318903
 C       -10.9839824203        8.1153185863       -0.1618104865
 C       -10.2430146738        8.5047213849        1.1745868549
 O        -9.3979662841        7.8255915106        1.7300232211
 C       -11.0073575401        9.6588418625        2.0314003471
 C       -11.2484768554       11.0450794330        1.1602497276
 O       -10.9232526014       11.0346172435       -0.0127423181
 C       -11.7119758579       12.2864968293        1.9004843528
 C       -12.6599175890       13.1641026104        1.1586150292
 C       -14.0196565960       12.7130733738        0.8197261245
 O       -14.7153800808       11.8390810665        1.3065170991
 C       -14.6941071046       13.5363125832       -0.4347465349
 C       -14.6876688691       12.4274736226       -1.5930765491
 O       -13.7531622058       12.4595886959       -2.3777327172
 C       -15.8273543582       11.4585004238       -1.7357452213
 C       -16.1452666116       13.9635918086       -0.2776843159
 C       -13.9187036833       14.8113270697       -0.9348451341
 C       -12.3470254098        9.2312604337        2.6044761857
 C        -9.9977099304       10.0182808754        3.1215707900
 C        -9.4598973499        3.8354247317       -2.3386441340
 C       -11.6994842232        3.7845682931       -1.0469395976
 C        -7.7962601925        1.2562803500        3.7758352414
 C        -6.3300349818       -0.4250805573        2.5513820771
 C       -12.1645904065       -3.6137191149        0.9026496979
 C       -10.4895543027       -5.0421957108        2.2132690638
 C        -8.9752891745       -3.0049848143       -3.7623448891
 C        -6.7896470648       -4.0628997152       -4.3051867950
 H        -7.3882867890       -1.3441574878       -5.9213330278
 H        -5.7300525287       -1.7904121473       -5.4564297492
 H        -6.3152469256       -0.0917909374       -5.5402194134
 H        -7.1759386553       -5.5262654811       -1.9090961736
 H        -8.7527183513       -4.8514483262       -2.4337011338
 H        -7.9904337540       -4.7189024556        0.6551633857
 H        -8.8141666092       -6.0571796608       -0.1968758783
 H       -11.5874861869       -1.3169338621        2.0331161763
 H       -10.5700023296       -0.9449754500        0.6165262702
 H        -9.6062680714       -0.7148317782        3.3719265104
 H       -10.5097690360        0.7371979198        2.3908541787
 H        -6.2686479638        3.9572916723        1.6387533370
 H        -7.6743542105        3.7392486625        2.4235818720
 H        -7.5543084424        3.3468095303       -0.6513357632
 H        -7.5485823979        4.8130033664        0.1465565527
 H       -11.0122315094        6.0970101004        0.6421512681
 H       -12.1858369344        6.4374526541       -0.7918815176
 H       -11.9587088965        8.6785187933       -0.2520372040
 H       -10.2949313575        8.5223014000       -0.8930663820
 H       -10.7339067583       12.9062158538        1.9885130760
 H       -11.9738162119       11.9558073078        2.9887440516
 H       -12.1495782590       13.6415378399        0.3456935006
 H       -12.7598059390       14.1508806266        1.7541958769
 H       -16.6395874165       11.5830387705       -1.0877028058
 H       -15.5447978051       10.4271192603       -1.6053574464
 H       -16.1668474113       11.3807928871       -2.7889148630
 H       -16.5787016604       14.6318466494       -1.0472349042
 H       -16.0959518682       14.6677745033        0.6129272889
 H       -16.8846935808       13.1785380601        0.0965747549
 H       -14.5617238908       15.4949082718       -1.5711317381
 H       -13.0619847455       14.5803076510       -1.5471753331
 H       -13.6588243503       15.5177660116       -0.0698058930
 H       -12.4328039579        8.2108971911        2.8763781974
 H       -13.0841132034        9.2506672846        1.8250699117
 H       -12.7812495207        9.8403091950        3.4549110498
 H       -10.5032612775       10.3218048366        4.1846659632
 H        -9.2709048055       10.8165742289        2.6755155470
 H        -9.4137539642        9.1793961117        3.4559216208
 H        -9.3100788926        2.7518589885       -2.1775936527
 H        -8.4896298353        4.2308876777       -2.2578378603
 H       -10.0903161483        3.9716413472       -3.2456415221
 H       -12.3137851075        4.1587773009       -1.8317345522
 H       -12.2857488652        4.0918358061       -0.2074217229
 H       -11.6791534513        2.6646463193       -1.0342320744
 H        -7.7460401943        0.4491751519        4.5199832220
 H        -8.7949191936        1.6028864016        3.7913911894
 H        -7.2274725837        2.2311348331        4.0637131010
 H        -6.3060112026       -0.9344765169        1.6120087307
 H        -6.7862324167       -1.1681315297        3.2165041283
 H        -5.5042985700       -0.0756048931        2.9972556340
 H       -12.6272229019       -4.1054670326        0.0732078901
 H       -12.2649390570       -2.5386165301        0.6233035598
 H       -12.7259270376       -3.7833947738        1.8029755340
 H        -9.3564969057       -5.2403422722        2.3654564789
 H       -10.8851494847       -6.0619138351        1.8123288052
 H       -10.9315780533       -4.9509137379        3.1771249419
 H        -9.4627649060       -2.2568750830       -3.0844190358
 H        -9.4653736613       -3.9564754914       -3.5450500731
 H        -9.2374985840       -2.5622050672       -4.7726318058
 H        -6.9112406590       -4.1114275452       -5.3945996403
 H        -7.2119539208       -5.0558880786       -3.9552079011
 H        -5.6522246931       -4.1434419067       -4.0548716943
 Na       -6.7419854146       -0.3694399729       -0.9022619654
