117

 C        -6.8687791526       -1.5149244881       -5.2045600069
 C        -7.2050068158       -1.6028909227       -3.7147982689
 O        -7.0110589305       -0.7260649258       -2.8926685764
 C        -7.6348651446       -3.1463899472       -3.3954580845
 C        -7.5824269424       -3.5699525924       -1.9083710318
 O        -7.0457798003       -2.8505948453       -1.1098795700
 C        -7.9388017353       -5.0495466124       -1.2855858509
 C        -8.6483580770       -4.8821513018        0.0501751807
 C        -9.9451399923       -4.0930974749       -0.0648708197
 O       -10.1579933381       -3.2907451523       -0.9073207627
 C       -10.7105468417       -3.9689721764        1.2180728003
 C        -9.9751537313       -2.6737907012        1.7472161445
 O        -8.8684995879       -2.7570825165        2.1784611990
 C       -10.7316200211       -1.3074648744        1.8922509014
 C       -10.0736677712        0.0445209947        2.4579369172
 C        -8.6970238973        0.2909456362        1.6740463702
 O        -8.6911029355        0.1077249307        0.4456216889
 C        -7.2384197066        0.7993091346        2.3188338430
 C        -6.7109199597        1.9136079494        1.3631375472
 O        -5.9556243209        1.5303788997        0.5145731152
 C        -7.3562047874        3.2592220190        1.4146906912
 C        -8.0567312689        3.5909923222        0.1091889340
 C        -9.6322262844        3.5951516034        0.2030338510
 O       -10.2171861296        3.5637934973        1.3018412206
 C       -10.2031257630        4.3048384506       -1.1402029489
 C        -9.9748445230        5.9814142240       -0.9095061864
 O        -8.9545327171        6.3748688502       -1.2602358684
 C       -11.2079142961        6.7935572183       -0.3395386080
 C       -10.7382105005        8.2655172897       -0.3745280131
 C       -10.2265963708        8.5804903586        1.0915586492
 O        -9.5215804812        7.7663735801        1.6202478418
 C       -10.7292564166        9.8047507335        1.8688148274
 C       -11.0394838373       11.0536106773        1.0470155780
 O       -10.7542576886       11.0327436770       -0.1717327236
 C       -11.7297400152       12.2101972278        1.8302601830
 C       -12.6085871330       13.2847832041        1.0938766553
 C       -14.0116420321       12.7100119682        0.5577286503
 O       -14.5176206019       11.7638974364        1.1659537555
 C       -14.7677602969       13.4900235498       -0.5684155755
 C       -14.5683481361       12.5052411004       -1.8245740291
 O       -13.5453858261       12.6128518932       -2.4783034974
 C       -15.5524396249       11.3894496673       -1.9111731789
 C       -16.3211230668       13.8211995800       -0.1283746247
 C       -14.1046383578       14.8552562998       -0.7919206615
 C       -12.1573792016        9.3103018069        2.4462545942
 C        -9.8698263372       10.0910561340        3.0780383631
 C        -9.5660039837        3.8307188878       -2.3786516842
 C       -11.7118305112        4.0047055285       -1.2386584935
 C        -7.3616351916        1.4502452969        3.7683164954
 C        -6.3249945581       -0.4196313940        2.4313715138
 C       -12.2786767434       -3.7271102751        0.8337077036
 C       -10.6530460072       -5.1693129599        2.2532338233
 C        -9.0597387839       -3.1627676977       -4.0188893553
 C        -6.6967598887       -4.1632934408       -4.1159992445
 H        -7.6810345527       -1.9143575349       -5.9332007544
 H        -5.8339456177       -1.9876885390       -5.2642519489
 H        -6.8507954138       -0.5141483415       -5.5448898294
 H        -7.0372874425       -5.5360400779       -1.1492423589
 H        -8.3723524744       -5.6013428282       -2.0231910068
 H        -7.9822543147       -4.4156114856        0.7302528012
 H        -8.9719061656       -5.7898927309        0.5685377339
 H       -11.6630711052       -1.5529410680        2.2963875820
 H       -10.8551652179       -0.9039451415        0.8116684488
 H        -9.8477687364       -0.1970072735        3.4061922481
 H       -10.5644243075        0.9751047999        2.1245994488
 H        -6.7861427426        3.9186173531        2.0110567038
 H        -8.2287583658        3.2644020594        2.1313456488
 H        -7.7410256985        2.8262204744       -0.7759012326
 H        -7.7544305396        4.6049895392       -0.2139437790
 H       -11.4935724605        6.3028051935        0.5538777318
 H       -11.7549636730        6.5769413521       -1.3592323946
 H       -11.5952448812        8.8866167063       -0.5702480483
 H       -10.0054568938        8.2300930650       -1.2571991129
 H       -10.9788215458       12.7459923091        2.4477433309
 H       -12.3188113124       11.6776719264        2.5229171990
 H       -11.9686664719       13.8191146871        0.3128848524
 H       -12.6992863656       14.0922357854        1.8101767408
 H       -16.6759354320       11.5679329271       -1.7512339452
 H       -15.2349081533       10.4932650773       -1.3758750935
 H       -15.5113674884       10.9292343946       -2.9250362377
 H       -16.9466161588       14.0778746289       -0.9971302447
 H       -16.4358451143       14.7136431834        0.4265350291
 H       -16.7619884528       13.0164433228        0.3402982744
 H       -14.2351600249       15.4276716083       -1.7053647657
 H       -13.0291129201       14.7798984701       -0.6939294601
 H       -14.5328394821       15.5166355151       -0.0343128059
 H       -12.1500532976        8.2033227361        2.2610397342
 H       -13.0859832873        9.6145423489        1.9575348947
 H       -12.3060149301        9.4628071596        3.4668035667
 H       -10.0299282645       10.8471900867        3.6582181319
 H        -8.9062686590       10.0484037339        2.6263684946
 H        -9.9187614099        9.1417288780        3.7154616294
 H        -9.3954165234        2.7233466092       -2.3926762656
 H        -8.6191858930        4.4803459913       -2.4578473096
 H       -10.3188847067        4.0198065149       -3.2347880676
 H       -12.1320876218        4.4280199095       -2.1750575926
 H       -12.4902564999        4.3860671490       -0.5331914140
 H       -11.8461220287        2.9472847094       -1.2426178516
 H        -7.7507918585        0.6729493431        4.3906125585
 H        -8.1371087043        2.3056373832        3.7432866408
 H        -6.5022526481        1.8625618675        4.1092550575
 H        -6.2657055091       -0.9405141066        1.4061573617
 H        -6.8201283770       -1.1768328831        3.0768541611
 H        -5.3883227620       -0.0403572093        2.9683100793
 H       -12.6656910583       -4.7604151080        0.7779499294
 H       -12.5095236903       -3.2941121524       -0.1333785843
 H       -12.8311300681       -3.0908762935        1.5962818288
 H        -9.9375673083       -4.9976393670        3.0113495106
 H       -10.4486103063       -6.0993802235        1.9448834822
 H       -11.5689076493       -5.1871598358        2.8393942195
 H        -9.8065357474       -2.8225495302       -3.3449578636
 H        -9.2919226593       -4.2342387203       -4.1643081324
 H        -9.1785810889       -2.5256367943       -4.8652525575
 H        -6.6816672420       -4.1173591816       -5.2082537412
 H        -6.9453307066       -5.1661711604       -3.9117084909
 H        -5.7304766359       -4.0287826678       -3.7697991821
 Na       -6.5722920083       -0.5784873049       -0.5803629974
