117

 C        -7.2470831252       -1.7678887131       -5.2002672790
 C        -7.3923870167       -1.9910940501       -3.7502267057
 O        -7.5315488690       -1.0079865229       -3.0570240980
 C        -7.6385709472       -3.4354059927       -3.0937851319
 C        -7.5627890133       -3.6726303496       -1.4663119715
 O        -6.7908658992       -3.0231181498       -0.7162812587
 C        -8.1287017176       -5.0220425962       -0.9599210599
 C        -8.8473338721       -4.9524868653        0.4139202295
 C       -10.0109212558       -3.9032969123        0.3003943244
 O       -10.2026217631       -3.4204404079       -0.7724644438
 C       -10.8914349142       -3.5751301890        1.5295150647
 C       -10.2836966512       -2.3112986038        2.4076084561
 O        -9.2740355172       -2.4617796113        2.9996554858
 C       -10.9337703298       -0.9753720377        2.5603616258
 C        -9.8189518518        0.2452664489        2.7550966714
 C        -8.6395744986        0.0105000228        1.9144669174
 O        -8.6071911661       -0.6597800295        0.9163495385
 C        -7.2690573502        0.7901520481        2.5233292929
 C        -6.9859075761        1.6654783352        1.2712718261
 O        -6.4433073069        1.1481894982        0.2075904142
 C        -7.3670750795        3.1534124370        1.2503179518
 C        -8.1092987254        3.6285107853       -0.1589121015
 C        -9.5911756855        3.7917023987       -0.0136730330
 O       -10.2395667904        3.3677845148        0.9376543701
 C       -10.2480134086        4.5818818681       -1.1919513923
 C        -9.8797197538        6.1731905941       -1.1457311884
 O        -8.7124952308        6.5265197556       -1.4389756133
 C       -11.0932064757        7.1397218014       -0.9094526161
 C       -10.7378079233        8.5545016123       -0.6407113039
 C       -10.1092809510        8.6119859763        0.7786944074
 O        -9.5219469214        7.7029934680        1.2563880779
 C       -10.5823388258        9.8925053251        1.7124034653
 C       -10.6613958406       11.1888631275        0.8823737608
 O       -10.0042135118       11.3916166864       -0.0539654864
 C       -11.2582046141       12.4863751101        1.4532061009
 C       -12.2675999408       13.1267900650        0.3645144966
 C       -13.6580948453       12.4358333152        0.2613518148
 O       -14.0235212319       11.4493044584        0.8506539951
 C       -14.6419987944       13.2168573081       -0.6708219651
 C       -14.3323020434       12.7947804359       -2.1446704525
 O       -13.7000237435       13.5822534693       -2.8378014593
 C       -14.5822411317       11.3293049540       -2.5432914387
 C       -16.0740710962       12.8040948287       -0.3387578850
 C       -14.5002487727       14.7568531824       -0.6991833061
 C       -12.0863890598        9.5661909019        2.2535418113
 C        -9.5552324312       10.0375518295        2.7459064717
 C        -9.6010759562        4.1487646240       -2.5123678945
 C       -11.8492541550        4.3374695997       -0.8751829626
 C        -7.4994079682        1.6520064160        3.7767710950
 C        -6.3106753560       -0.4083247368        2.7558769653
 C       -12.4020658379       -3.0879404418        0.9897144371
 C       -11.1999609400       -4.9226062552        2.3315240502
 C        -9.1110609500       -3.8601913433       -3.4789718795
 C        -6.5635075568       -4.3643772531       -3.6864787007
 H        -7.3207983883       -2.5972482144       -5.9058954006
 H        -6.2667798214       -1.4084265082       -5.3683176172
 H        -7.9779035026       -0.9486297718       -5.3715211147
 H        -7.3290020739       -5.8098056385       -0.9675038265
 H        -8.8461825172       -5.4071531032       -1.7723041259
 H        -8.2406056262       -4.5781274886        1.2677866116
 H        -9.1774408989       -5.9310611861        0.5882439502
 H       -11.5169141922       -0.9798539566        3.6125017144
 H       -11.6831381353       -0.7949480687        1.7955085269
 H        -9.4870819715        0.2474299341        3.8528913816
 H       -10.3451378912        1.1295516674        2.3902445950
 H        -6.4474443338        3.8156878695        1.1218245162
 H        -7.9584086874        3.5198535555        2.0681520158
 H        -7.8090706429        2.9447644597       -0.9205128223
 H        -7.6724987223        4.6558865154       -0.3914055690
 H       -11.6600492627        6.6972785786       -0.0837899199
 H       -11.7337402720        7.0847063915       -1.6876865246
 H       -11.6203578694        9.0434734623       -1.0228709272
 H        -9.8979392837        8.8331953504       -1.2034872993
 H       -10.4071549646       13.0970384404        1.5788562837
 H       -11.8063293381       12.5026241934        2.4021010467
 H       -11.6897028475       13.0720809877       -0.5134673926
 H       -12.4478363280       14.1601968282        0.7634784274
 H       -15.1192112032       11.2366217376       -3.4981873549
 H       -15.1606873573       10.6775665602       -1.7878445426
 H       -13.7119986451       10.7756855170       -2.7681281789
 H       -16.8556928536       12.8907122893       -1.0237511177
 H       -16.2446156311       13.3927035432        0.5399625369
 H       -16.2066859779       11.7915876153        0.0312500932
 H       -15.1098069576       15.0640033572       -1.4862517396
 H       -13.4648937896       15.1256439558       -0.9076677686
 H       -14.7800300929       15.2437041746        0.1817103133
 H       -11.9489267952        8.6854392322        2.8393893720
 H       -12.6885285604        9.2429255681        1.3521118052
 H       -12.5854402479       10.3080091683        2.8821031917
 H        -9.7815806614       10.3951266658        3.6524857539
 H        -8.7735131305       10.6876758271        2.2896585667
 H        -9.1688294178        8.9379091965        2.6810813219
 H        -9.7561372807        3.0441283848       -2.5376274475
 H        -8.5871085096        4.6643898823       -2.5182875123
 H        -9.9989217355        4.5770108654       -3.3762320714
 H       -12.6258801741        4.5758988404       -1.6452297885
 H       -12.1824211914        4.7108578521        0.0838635382
 H       -12.0690901895        3.2438359408       -0.7336573654
 H        -7.7687637239        1.1157359304        4.7011137699
 H        -8.1826505829        2.4135712339        3.4340891571
 H        -6.4817020608        2.0489427100        3.9228661285
 H        -6.1713906140       -0.9550440392        1.8552434917
 H        -6.9269662534       -0.9239060819        3.3788278749
 H        -5.2653144813       -0.1590932061        3.2002052709
 H       -12.7051776828       -2.0466543923        1.2458466082
 H       -13.1650006902       -3.6076857166        1.5732179766
 H       -12.6599625258       -3.3700535207       -0.0148337202
 H       -10.4067635413       -5.2540031697        2.9389365487
 H       -11.3475188181       -5.7941133772        1.7089918705
 H       -12.1403602283       -4.9190142360        3.0233608421
 H        -9.7814644381       -3.0392649997       -3.2653556100
 H        -9.5783993927       -4.7506655629       -3.2035894184
 H        -9.0476674311       -3.9490822512       -4.5246107418
 H        -6.5300652641       -4.1336126547       -4.7276686119
 H        -6.7299313710       -5.3837950379       -3.5249965787
 H        -5.6324490123       -4.1539864481       -3.3428960900
 Na       -7.2567171722       -0.8679238866       -0.6583089438
