117

 C        -7.2609504788       -1.8636505292       -5.2097861358
 C        -7.5132083808       -1.9313451209       -3.6968491456
 O        -7.5942905170       -0.9804308393       -2.9883060897
 C        -7.6773066427       -3.4872716841       -3.1123475050
 C        -7.5358626370       -3.7506179650       -1.4510424172
 O        -6.8049665065       -3.0330454856       -0.8275903380
 C        -8.0885012842       -5.0157927142       -0.7658612147
 C        -8.7906516161       -4.7179605691        0.5970384629
 C       -10.1408281812       -3.8351736070        0.4189297872
 O       -10.3107734482       -3.3975181256       -0.6792950713
 C       -11.1198458985       -3.6014610001        1.5794047595
 C       -10.4223153338       -2.3783931030        2.5640285776
 O        -9.3242608416       -2.5528281269        3.0355236945
 C       -10.9921227734       -0.7879374267        2.6798544703
 C        -9.8892000438        0.2253208156        2.9442707219
 C        -8.6739542667        0.0297755276        2.0788746134
 O        -8.5543585287       -0.6412584092        1.0795061152
 C        -7.3139263808        0.9200511607        2.3986762702
 C        -6.9947175255        1.7769861286        1.0948764445
 O        -6.6310209237        1.1356944421        0.1055561042
 C        -7.2299769254        3.2534659151        1.1614500510
 C        -8.0377654003        3.7408708374       -0.0823515810
 C        -9.5460450960        3.8082847587        0.1021525432
 O       -10.1927787322        3.1833557755        0.9567149034
 C       -10.1816123935        4.5822491318       -1.1271164577
 C        -9.9442181285        6.2266251138       -1.1456920383
 O        -8.8628902887        6.5480876612       -1.4062895951
 C       -11.0890253750        7.1470091472       -0.9500995079
 C       -10.7010861615        8.5773540017       -0.6476684086
 C       -10.1127383422        8.6039176246        0.7597314053
 O        -9.6419411789        7.6154682602        1.2400714408
 C       -10.3341082834        9.8391433884        1.6567083533
 C       -10.4524620277       11.3702497254        0.8598881360
 O        -9.9435613074       11.4143535187       -0.2980160729
 C       -11.3946466023       12.4199550843        1.5094101886
 C       -12.1670857748       12.9931050027        0.2858151191
 C       -13.5981330672       12.4389893257        0.2467404544
 O       -13.8436765347       11.3728248299        0.8276971773
 C       -14.5658062724       13.1760070020       -0.6650140031
 C       -14.1534250964       12.7710893208       -2.1772815744
 O       -13.8353207487       13.6456940159       -2.9416387593
 C       -14.3698082063       11.3966274537       -2.7384693401
 C       -16.0242909060       12.6918154615       -0.3303798345
 C       -14.5480754758       14.6924080069       -0.6007188668
 C       -11.9301275612        9.6513920061        1.9099191030
 C        -9.5036010000       10.2165173509        2.9268928909
 C        -9.6604686485        4.1537747817       -2.5214556938
 C       -11.7491377937        4.3278794463       -0.9844513324
 C        -7.4102615670        1.7176684261        3.7129135940
 C        -6.3608757397       -0.2922260629        2.6954939750
 C       -12.4344904704       -3.2463513083        0.8893701073
 C       -11.3147227880       -4.9000580293        2.3857513443
 C        -9.0360071967       -3.9244124357       -3.5438895049
 C        -6.6008029331       -4.4946392292       -3.6147236536
 H        -7.2939829019       -2.8395769332       -5.7753310165
 H        -6.2556728807       -1.5503264462       -5.3799745304
 H        -7.8966098820       -1.1435372950       -5.5480186117
 H        -7.1789347705       -5.7140292547       -0.4385896087
 H        -8.6277727348       -5.6023029688       -1.5687294115
 H        -7.9603362349       -4.2544822158        1.2131994275
 H        -9.0546883883       -5.7114297039        0.9645285942
 H       -11.6952389296       -0.7895148744        3.4410710406
 H       -11.5314605457       -0.6434410080        1.7104954349
 H        -9.5964351121        0.1274221999        3.9824688337
 H       -10.3517834534        1.2644511245        2.6511072942
 H        -6.3377420967        3.9232367737        1.2142956584
 H        -7.9815907721        3.4749528205        1.9826682212
 H        -7.8744811261        3.0709960771       -0.9046052713
 H        -7.6933404446        4.6438613300       -0.3243381757
 H       -11.7300515919        6.7096443797       -0.2742835979
 H       -11.7189395591        7.1186221818       -1.8925818498
 H       -11.6223628445        9.0582634799       -0.8384907517
 H        -9.9874934354        8.9380676851       -1.4024681218
 H       -10.9211354702       13.2770378620        2.1223357225
 H       -12.1454019596       11.9695697717        2.1434258944
 H       -11.4872154530       12.6873922082       -0.5394236869
 H       -12.2157651691       14.0079347000        0.5154466007
 H       -15.0019149384       11.3378177465       -3.6125785769
 H       -14.8085032186       10.7966266786       -2.0206166441
 H       -13.4842023500       10.8669204622       -3.0827027380
 H       -16.8068467544       12.6905288496       -1.1027102637
 H       -16.3337306525       13.2309022903        0.5655265068
 H       -16.0828754026       11.6958166904        0.0530564052
 H       -14.9563655416       15.0303722464       -1.5457800838
 H       -13.5929595504       15.0795261646       -0.4675251407
 H       -15.0355536307       15.0824947753        0.2723614504
 H       -12.1476216945        8.5608447188        2.1335456501
 H       -12.4377998304        9.8578764326        0.9347676453
 H       -12.2810558919       10.2031482849        2.7385933135
 H        -9.8690559137       11.1956970535        3.4408799306
 H        -8.5389864256       10.5989160152        2.3477170650
 H        -9.2807394490        9.3434625572        3.5805750238
 H        -9.8091256085        3.0993281914       -2.6310187922
 H        -8.6474747600        4.6604022954       -2.6417392986
 H       -10.2079197710        4.6668688443       -3.2860894226
 H       -12.2144827371        4.9821259356       -1.7587203297
 H       -12.2194818231        4.4203183183       -0.0021900775
 H       -12.1701824341        3.4084111017       -1.3208009626
 H        -7.5484109251        0.9166268157        4.4704568004
 H        -8.3675779734        2.3873516372        3.6091366732
 H        -6.4952902708        2.1682893263        3.9282650380
 H        -5.8659833372       -0.6711926787        1.8151570275
 H        -6.9104690568       -0.9911259922        3.2978487277
 H        -5.5865623242        0.1474715374        3.2409751311
 H       -12.5251311632       -2.1624627512        0.7268776578
 H       -13.2953487751       -3.4499944289        1.4680485300
 H       -12.5706545654       -3.8106738224       -0.0450823686
 H       -10.2381378495       -5.0887853866        2.8117854521
 H       -11.4138521455       -5.8385094698        1.7978320759
 H       -12.0557647238       -5.0892919474        3.1910929520
 H        -9.7358959457       -3.2928764287       -3.1387742558
 H        -9.3350729005       -4.9571198753       -3.3261886045
 H        -9.0493947821       -3.9315120606       -4.5917356147
 H        -6.5006667882       -4.4405008412       -4.6891012475
 H        -6.8266237332       -5.4696200189       -3.2936034939
 H        -5.6542943187       -4.2647531382       -3.1771940761
 Na       -7.3317727734       -1.0195843954       -0.6568871386
