117

 C        -7.2890387587       -2.0063481551       -5.0490561315
 C        -7.5005618468       -2.1608518943       -3.4989067737
 O        -7.6583627576       -1.0565540975       -2.8882893256
 C        -7.7445513498       -3.5920932479       -2.9984074641
 C        -7.5260784588       -3.7407514883       -1.4928520395
 O        -6.7473212730       -3.0604348842       -0.8884925259
 C        -8.1147791691       -4.9111299342       -0.5883294542
 C        -8.7209634461       -4.4189376081        0.7395126796
 C       -10.0911391164       -3.7631526568        0.4592062176
 O       -10.4092681198       -3.3018422628       -0.6544579225
 C       -11.1460100549       -3.4766427486        1.6304785962
 C       -10.5045018122       -2.4111759813        2.4862835957
 O        -9.4871179237       -2.7849068813        3.0930939801
 C       -11.0342853614       -0.9155011579        2.6079701972
 C        -9.9967815145        0.0886328312        3.0718346339
 C        -8.7225913907        0.1887256621        2.1289231565
 O        -8.8409928282       -0.6956341811        1.2927470194
 C        -7.3558126092        0.8807894795        2.4111265748
 C        -7.0730674516        1.7428566504        1.0565025630
 O        -6.8185961742        1.2593982857        0.0213453894
 C        -7.1055246137        3.2385361569        1.1388766500
 C        -7.8636122997        3.8724354623       -0.0639743525
 C        -9.4846432267        3.8060391004       -0.0498657190
 O        -9.9895445945        3.1587881974        0.8619645170
 C       -10.2587683726        4.6463995395       -1.1188270348
 C        -9.9691227400        6.1487646483       -1.0017425691
 O        -8.8991486261        6.5574202994       -1.3537963862
 C       -11.2326053499        7.1775544531       -1.0169914905
 C       -10.5637834771        8.6519510874       -0.6605677931
 C        -9.9909503179        8.6957160744        0.7432837019
 O        -9.6539693058        7.5933560850        1.3242665377
 C       -10.2553746956        9.9372779537        1.5621966929
 C       -10.3946600012       11.3120466254        0.7396471243
 O        -9.8517946608       11.4702749467       -0.3799201257
 C       -11.2047325035       12.3112071495        1.3284251898
 C       -12.1044407451       13.0718048191        0.2938412945
 C       -13.5017433777       12.4938640922        0.2013704920
 O       -13.7932530937       11.4241384401        0.7254235524
 C       -14.5506896606       13.1611131867       -0.7430474466
 C       -14.2205087903       12.8398737422       -2.3030669937
 O       -13.8675690338       13.7250976259       -3.0213422853
 C       -14.1998872567       11.3510999469       -2.8472501541
 C       -15.9862978137       12.5202584908       -0.4004195049
 C       -14.6218675649       14.6726010851       -0.4627305317
 C       -11.7423263864        9.5466103736        1.9068627697
 C        -9.5658365353       10.2128511076        2.9910010753
 C        -9.8140959103        4.0468860115       -2.4279460964
 C       -11.7537557923        4.2805830637       -1.1578734944
 C        -7.4576705728        1.8539308572        3.7128133470
 C        -6.1962982438       -0.1677319800        2.5661679123
 C       -12.5078418231       -3.2695299169        0.9532062935
 C       -11.3018812577       -4.7311167362        2.5369939107
 C        -9.1377705456       -4.0111661770       -3.6836080900
 C        -6.5992953865       -4.5601588327       -3.5921258411
 H        -7.3871820955       -2.9174332458       -5.5417356788
 H        -6.2353406121       -1.7366625445       -5.2977678466
 H        -7.9546527800       -1.1915988372       -5.3939303262
 H        -7.2292106852       -5.5259293907       -0.2995360618
 H        -8.7355533691       -5.5310728742       -1.2163292834
 H        -7.9722385300       -3.6977133346        1.0643995520
 H        -8.9342277002       -5.2691866466        1.5015715715
 H       -11.8870596375       -1.0301164500        3.2080529392
 H       -11.4284392147       -0.6920845855        1.6249059544
 H        -9.6755098403       -0.2351884523        4.0471981085
 H       -10.5484017903        1.0537767715        3.0628048194
 H        -6.0623466663        3.4986012983        0.9964596004
 H        -7.6019974673        3.7798838435        1.9892978117
 H        -7.5679046943        3.2950845701       -0.9292949152
 H        -7.4742619136        4.8749952469       -0.1462378236
 H       -12.0518082406        6.7351080755       -0.4213566560
 H       -11.6793718234        7.0129433490       -2.0872709449
 H       -11.3280503920        9.4442516242       -0.6527286681
 H        -9.8949277702        8.8695109833       -1.5536685224
 H       -10.5353172740       13.1469030197        1.7360045534
 H       -11.8663706011       11.9667425177        2.1724636849
 H       -11.5729720138       12.6952641145       -0.6383464813
 H       -11.9900926701       14.1080679620        0.5707645894
 H       -14.8355719969       11.0779610570       -3.6545971391
 H       -14.4676832387       10.6695306498       -2.0736564819
 H       -13.1927874871       11.0809243151       -3.2299874224
 H       -16.6045560120       12.6567707761       -1.3231013052
 H       -16.5373306775       12.7816713329        0.5112133572
 H       -16.0202157287       11.4164760939       -0.2967899109
 H       -15.0869142529       15.2274171272       -1.3121488362
 H       -13.6362473236       15.0220132093       -0.2808005858
 H       -14.9846216995       14.8796125845        0.5695534159
 H       -11.7460723291        8.4348918600        1.8548439800
 H       -12.5114421108        9.8889671999        1.2814405860
 H       -11.8946264557        9.7681617950        2.9935255142
 H        -9.7242929994       11.3618606002        3.3479205478
 H        -8.5028647188       10.1070763237        2.8878946994
 H        -9.9885802892        9.4486807249        3.6469350782
 H        -9.9408016959        2.9566406110       -2.4603887872
 H        -8.8262136431        4.4325851239       -2.5226823379
 H       -10.3687009418        4.5825998187       -3.2556642737
 H       -12.2159571870        4.9006559029       -1.8764660884
 H       -12.3776635446        4.1270141066       -0.2536608332
 H       -11.9416028485        3.3889131002       -1.7080781034
 H        -7.2909022637        1.0965305585        4.4752942707
 H        -8.4119627715        2.2912417902        3.7927525150
 H        -6.5482619766        2.4794725052        3.7572864883
 H        -5.6947798504       -0.2356600577        1.6053053566
 H        -6.3150354445       -1.1214109022        3.1870967693
 H        -5.4574322947        0.4966348143        2.9612016829
 H       -12.3347565436       -2.4868786520        0.2659295822
 H       -13.4209785891       -2.9717078516        1.4656391116
 H       -12.7324700838       -4.1646701133        0.3616037861
 H       -10.3493209997       -5.1374602290        2.9986600092
 H       -11.6620642711       -5.6677088745        1.9850686946
 H       -12.0196849985       -4.6967485777        3.3084360107
 H        -9.9507466941       -3.6881430064       -3.0397365243
 H        -9.1729169527       -5.0966600597       -3.6966146401
 H        -9.2435000730       -3.7789090024       -4.7595458906
 H        -6.6465843213       -4.5661987607       -4.6744343039
 H        -6.7539291269       -5.5844347719       -3.1821156926
 H        -5.5457982833       -4.2643974772       -3.2190198939
 Na       -7.3480443236       -0.9995611011       -0.7065909250
