117

 C        -7.5348681905       -6.2247148704        1.6995718140
 C        -8.3926763506       -5.7375824432        2.9183757298
 O        -8.7860548868       -6.4632996211        3.7984130784
 C        -8.8228193251       -4.2362713492        2.8354322462
 C        -9.9989192797       -4.3176670754        1.8232311803
 O        -9.7287053173       -4.8394531516        0.7454702223
 C       -11.4907049636       -3.7971050106        2.0975018566
 C       -12.1742227439       -3.5370198933        0.7338821832
 C       -12.4115610260       -2.1361830879        0.1317733217
 O       -12.1312818480       -1.9414223879       -1.0232518836
 C       -13.2357349211       -1.0167325921        0.8445642212
 C       -12.2302544833        0.2377042183        1.0266635175
 O       -11.7192395416        0.5430510600        2.0944712744
 C       -11.6923176443        0.8263976625       -0.2326545264
 C       -10.2319232471        1.2726389257       -0.1657784733
 C        -9.7862511954        2.4227014193       -1.0170203181
 O        -9.5672007735        3.5121723086       -0.5050722743
 C        -9.4858379100        2.0708563664       -2.5963807057
 C       -10.7655903162        2.8109026241       -3.2284517974
 O       -11.8848337028        2.8505722942       -2.7612197363
 C       -10.5684994985        3.6754485017       -4.5107644066
 C       -11.1716543222        5.1015903037       -4.5109132326
 C       -10.5343610069        6.0133662577       -3.4755956286
 O        -9.3731493977        5.8331592786       -3.1323007868
 C       -11.4806665632        7.0451261884       -2.7425371178
 C       -10.6658275617        8.0900356928       -2.0345730603
 O        -9.9199482246        7.8035514579       -1.1110100777
 C       -10.9428180787        9.5471072507       -2.3833915137
 C        -9.9016418705       10.4907068665       -1.8367392644
 C       -10.2230456018       10.8231454469       -0.3668077745
 O       -11.3037147548       10.4458997378        0.1128789014
 C        -9.1371982887       11.5621989613        0.5849034760
 C        -8.2485864055       10.3156653720        1.0275302681
 O        -7.1191685933       10.1910473287        0.7071996108
 C        -8.9528321781        9.2944256928        1.8886285217
 C        -7.8185849162        8.4925809012        2.7471891686
 C        -7.8885601649        7.0587374065        2.0850065378
 O        -8.8962831689        6.5382314252        1.7123107799
 C        -6.4264375267        6.3166597519        1.7962362951
 C        -6.0341697470        6.7428907772        0.3181510457
 O        -6.7757203261        6.3866859837       -0.5933287311
 C        -4.9986633964        7.8732568048        0.1573635827
 C        -5.3362010478        6.7167528766        2.9141616355
 C        -6.6410319313        4.7832268178        1.8750388403
 C        -8.4310753710       12.5969649503       -0.2508403129
 C        -9.8102231081       12.2285028094        1.8342526970
 C       -12.5047767399        7.6340663476       -3.7730539386
 C       -12.2511954596        6.2737031207       -1.5871245160
 C        -8.1748789337        2.6337472850       -3.0367326345
 C        -9.6143037955        0.6026334553       -3.0433135313
 C       -14.3572498087       -0.5267192991       -0.1296644519
 C       -13.8219481115       -1.3329541164        2.2537795718
 C        -9.3500835617       -3.6983662073        4.2713608948
 C        -7.8811424015       -3.1910308949        2.2940330331
 H        -7.2630646771       -5.4351317668        0.9281103365
 H        -8.1056231355       -7.0200547586        1.2292364253
 H        -6.6068061004       -6.8390224185        1.9380250459
 H       -11.5560166111       -3.0056750232        2.7529795243
 H       -12.0538238241       -4.6168857886        2.6108212959
 H       -13.1422761740       -3.9458774678        0.7628036136
 H       -11.6301985588       -4.1504664158       -0.0202427065
 H       -12.4075395331        1.6613222726       -0.4071069542
 H       -11.8510103137        0.1498489623       -1.0999232301
 H        -9.5373143634        0.4573330419       -0.3481470099
 H       -10.0677463734        1.4538796305        0.8830687587
 H       -11.0080596337        3.0775919191       -5.4006821156
 H        -9.5019631601        3.6385937287       -4.7972843779
 H       -12.2501282716        5.1243723365       -4.5537540737
 H       -11.0081953066        5.6078993906       -5.5458822026
 H       -11.8780376672        9.7643267198       -1.7569856102
 H       -11.2363068170        9.7745964711       -3.4773940024
 H        -9.7787073868       11.3970095924       -2.5136024583
 H        -8.9664549300       10.0550964097       -1.8675107844
 H        -9.6469775785        8.7078100452        1.3094842721
 H        -9.6084638786        9.8309421054        2.5750557325
 H        -8.0235848762        8.6116500324        3.8145031987
 H        -6.8840500226        9.1148637861        2.5875241035
 H        -5.1019143971        8.6537579679        0.9180162433
 H        -5.1287753573        8.3564087259       -0.7457729036
 H        -4.0124290002        7.4322905936        0.4245055489
 H        -5.6737066768        6.4512014360        3.9278567524
 H        -5.1145727142        7.7608874259        2.8537667449
 H        -4.4142332147        6.2336493807        2.6432164485
 H        -7.2757406986        4.4203882393        2.6817810820
 H        -5.7383411369        4.2260047028        2.1939367486
 H        -7.1089325749        4.3947518748        0.9553763687
 H        -7.7971894522       13.2866205330        0.3613678569
 H        -9.2290740473       13.3092065798       -0.5701838090
 H        -7.8712395443       12.1916183182       -1.0305300165
 H        -9.3519762935       11.9448381416        2.7602370016
 H       -10.8310348143       11.9458329014        1.8949779213
 H        -9.7117610413       13.3214419271        1.8961735014
 H       -13.1061147327        6.7373409065       -3.9146063908
 H       -12.1536164437        7.9437354523       -4.7588818067
 H       -13.0764085374        8.3481204432       -3.2332209409
 H       -12.8722180622        5.5131454391       -2.1543870523
 H       -12.6919272238        6.8296014114       -0.8226183975
 H       -11.4758258634        5.6828217324       -1.0558236988
 H        -7.8563564097        2.2028104508       -4.0479757235
 H        -7.5213981856        2.3695217892       -2.2397388214
 H        -8.2747997574        3.7595694037       -3.1382594430
 H       -10.5811014411        0.2750264206       -2.7151706284
 H        -8.7979399152        0.0257556167       -2.5926458553
 H        -9.6035566301        0.4334577992       -4.1240538171
 H       -14.9840854860       -1.3477471090       -0.4174558656
 H       -13.9438878710        0.0672956705       -0.9380721966
 H       -15.0895781494        0.1597097582        0.2121939661
 H       -14.3392076771       -2.3222139269        2.3050271868
 H       -14.4202407027       -0.4798332475        2.6304968990
 H       -12.9608091164       -1.4202385783        2.9966090437
 H       -10.0368812413       -4.5035255833        4.5206391226
 H        -9.9145916509       -2.8274358715        4.0631315898
 H        -8.6661653577       -3.5108767869        5.1210958037
 H        -6.9977866007       -3.0445497769        2.9347766478
 H        -8.5059541758       -2.3361493467        2.0606883048
 H        -7.4604929762       -3.5779300536        1.3151354610
 Na       -9.0490587504        5.7480584856       -0.5575670777
