117

 C       -15.0413741210        1.2784850186        4.8810827159
 C       -13.9742760260        2.3432132119        5.2829434199
 O       -13.1162806602        2.7077028566        4.5087981801
 C       -13.9801495749        2.8442078353        6.7807053996
 C       -12.3926369571        3.4109227864        7.1540641892
 O       -11.5566375217        3.7432445121        6.3001726477
 C       -12.1224306356        3.7558935655        8.5557388777
 C       -11.4276997503        5.1150597596        8.6431058059
 C       -12.0457946539        6.4187971898        7.9137443696
 O       -13.1586062505        6.7295206601        8.1655054179
 C       -11.1150849561        7.3658443018        7.1039296691
 C       -11.2416694659        7.1205143551        5.5761481577
 O       -12.1132897655        6.3083934322        5.1821867465
 C       -10.2429115451        7.7720460401        4.4658648395
 C       -10.5893845241        7.5865844380        2.9768178487
 C        -9.8888435985        6.4082435270        2.3654080425
 O        -9.2594837322        5.6410418525        3.0512266494
 C       -10.0344968159        6.0228854814        0.7737393014
 C       -10.6983923440        4.5417301908        0.8194058928
 O       -11.1850287427        3.9859600154        1.8228850265
 C       -10.7229036291        3.8282872702       -0.5429608735
 C       -11.4940804407        2.5818943314       -0.4343021870
 C       -12.3640317126        2.6393497276       -1.8529391021
 O       -13.2543820659        3.4631200922       -2.1405069371
 C       -11.7715985012        1.6097245247       -2.9478246343
 C       -10.1406259265        1.5679035197       -3.0435052910
 O        -9.5338308531        0.9686733936       -2.1837703510
 C        -9.5016427135        2.1176892034       -4.2750367796
 C        -8.2730646897        3.0844875718       -3.9178473212
 C        -7.5841190215        3.7721400975       -5.1326083286
 O        -8.2440831146        3.8809395049       -6.1427760423
 C        -6.1416032648        4.1443023834       -5.1914093353
 C        -5.3630398879        2.8757097116       -5.6842040902
 O        -4.4395126141        2.2465367647       -5.1430154711
 C        -5.9060803667        2.2887721855       -6.9819557881
 C        -5.4280905670        0.7926813670       -7.1962789117
 C        -6.4049246893       -0.2143847579       -6.3911436655
 O        -7.2352907764        0.3157365812       -5.6416387274
 C        -6.1437580505       -1.7578868179       -6.2749116272
 C        -4.7986160308       -2.1365081949       -6.9924272226
 O        -4.9034451512       -2.4849315436       -8.1274764180
 C        -3.4452989287       -1.9562764740       -6.1883869519
 C        -6.0443839192       -2.1477865742       -4.7834696296
 C        -7.3333143255       -2.5046898706       -7.0638347450
 C        -5.9398293460        5.2477964763       -6.2426604035
 C        -5.6518990221        4.5403146164       -3.8085304372
 C       -12.1845531086        0.1520999367       -2.6895185254
 C       -12.4416544891        2.1225301922       -4.2875840148
 C       -10.9145202928        7.0022884820        0.0157830211
 C        -8.6369680243        6.0061549156        0.1537464991
 C       -11.6741765909        8.7897266168        7.4968775288
 C        -9.6276773103        7.3734415577        7.5407650850
 C       -14.7978527042        4.0671825527        6.7981403113
 C       -14.1646339207        1.6743906175        7.8325098048
 H       -15.6782082944        1.6415485035        4.0903712057
 H       -15.6365015068        1.2066357887        5.8774240093
 H       -14.6371706305        0.3248981316        4.6042203596
 H       -11.7125230382        2.8493362626        9.1261287517
 H       -13.0609623790        3.9537579148        9.0284868160
 H       -10.3772996580        5.1986496341        8.2747984494
 H       -11.3237337259        5.6902192280        9.6074880047
 H        -9.3038279300        7.3217521159        4.5613866458
 H       -10.0879038211        8.8013193521        4.6103551272
 H       -10.3972152791        8.5838960722        2.4996083589
 H       -11.6231826471        7.3190763621        2.6709510812
 H        -9.6932167037        3.6904815550       -1.0012357620
 H       -11.2188669111        4.5354659188       -1.2282615481
 H       -12.0743459438        2.3957457216        0.4906340222
 H       -10.8381231658        1.7543071540       -0.6298454588
 H       -10.1120418341        2.5577191125       -5.0353148699
 H        -9.0114781803        1.3172529856       -4.7326776220
 H        -7.5960844844        2.5015730948       -3.2149314010
 H        -8.7916209125        3.8137374868       -3.2333372988
 H        -5.6216987517        2.9844367177       -7.7987915613
 H        -6.9929261302        2.3716934038       -7.0495757823
 H        -4.4042609493        0.5965404387       -6.7043181745
 H        -5.4160747113        0.4531298705       -8.2465397539
 H        -2.9093014561       -1.4005933333       -6.8897562371
 H        -2.7417543424       -2.7751616152       -5.9617196762
 H        -3.5506056326       -1.4123436730       -5.2157584136
 H        -5.3060932958       -1.5687402773       -4.2364082374
 H        -5.8602631992       -3.2429820835       -4.7405243311
 H        -7.0268406928       -1.8719301242       -4.3916932153
 H        -7.3101043845       -1.9723493712       -8.0955965481
 H        -8.3144194541       -2.5232212221       -6.5461011175
 H        -7.1676798063       -3.5442958527       -7.2513173997
 H        -6.7439370881        5.1768332741       -6.9946356700
 H        -4.9846238899        5.1215261054       -6.7527740640
 H        -5.8438962976        6.2213170789       -5.7700778388
 H        -6.2631499681        5.2016133275       -3.1459607414
 H        -4.5970440780        4.9832000034       -3.7768254767
 H        -5.4809980422        3.6743391496       -3.2421798133
 H       -12.1914933001       -0.2509609651       -3.6274555262
 H       -13.2679700923       -0.0003373882       -2.5386915571
 H       -11.6427289256       -0.4406244929       -1.8568088366
 H       -12.3472285205        3.2233298505       -4.5128484437
 H       -13.5737903784        2.0398847426       -4.1226590098
 H       -12.2007240259        1.6891574750       -5.3433385895
 H       -11.1003889329        6.9174959137       -1.0271525652
 H       -10.4733306106        7.9741189032       -0.0046717454
 H       -11.8568768445        7.2036524366        0.5395554485
 H        -8.3854827096        7.0657517749        0.2663165785
 H        -8.4871259082        5.6579524181       -0.7968067076
 H        -8.0921558251        5.3231817395        0.7307823128
 H       -11.4713899371        8.8431646928        8.5802863424
 H       -12.7487377862        8.8849828330        7.2603292329
 H       -11.0673853107        9.5626688494        7.0828293527
 H        -9.3858732464        7.4801226189        8.6068196543
 H        -9.2547322224        8.3377979338        7.1480125686
 H        -8.9996707171        6.5166449368        7.2409745909
 H       -14.8667594857        4.5156791716        7.8181079125
 H       -15.7987475489        4.0001620764        6.4594968079
 H       -14.5100515485        4.8415694096        6.1141519169
 H       -13.6420104488        0.7596434717        7.5126723459
 H       -15.2166928041        1.4494498430        8.0423323013
 H       -13.7262743897        2.1872832166        8.6953823195
 Na      -11.5695182592        4.3834873608        4.0730842333
