117

 C       -15.3745967017        1.8416986653        4.5935628537
 C       -13.9495718088        2.6518642028        4.9562537173
 O       -13.0624136764        2.6943136843        4.1535383391
 C       -13.9476452966        3.3158420928        6.3470381108
 C       -12.5293476362        3.6987344388        7.0762943911
 O       -11.4749105433        3.6977415157        6.4705077314
 C       -12.6004027435        4.3474890309        8.4150944995
 C       -11.4276534028        5.4243660505        8.4693704694
 C       -11.7643742987        6.7958069053        7.8434995916
 O       -12.9762664922        7.0258368427        7.8508067629
 C       -10.6530176411        7.7142808886        7.1717034848
 C       -10.6185011348        7.2117038832        5.6774650323
 O       -11.3009930828        6.3120708428        5.2442073660
 C        -9.6402349984        7.9693235469        4.6868605998
 C        -9.7814638535        7.7192915893        3.1497081396
 C        -9.8361825372        6.3448762930        2.6402647883
 O        -9.5097672708        5.4467201891        3.3675941652
 C       -10.0633111636        5.9396299946        1.0964454133
 C       -11.0325212863        4.7105396035        0.9837350727
 O       -11.5028611294        4.0439190662        1.8771243504
 C       -11.0210637844        4.2345093631       -0.4908844925
 C       -11.9829877246        3.0049924653       -0.6242268694
 C       -12.5680632482        3.1235612350       -2.0553528997
 O       -12.9446243624        4.1793566168       -2.5874998672
 C       -12.3959251673        1.7406240950       -2.9314144254
 C       -10.8334450267        1.4915848924       -3.2343561836
 O       -10.1169792967        0.5609402521       -2.8264314390
 C       -10.1413805523        2.5317234556       -4.0446574029
 C        -8.6133006562        2.1465027418       -4.3988987580
 C        -8.0195176373        3.1831937708       -5.4539200687
 O        -8.7372821281        3.5520828201       -6.3626098983
 C        -6.5594457913        3.4951987704       -5.4695176092
 C        -5.7283089715        2.3155440075       -5.7503452595
 O        -4.6349737143        2.0792716467       -5.1261587980
 C        -6.1035319908        1.7085576735       -7.0897092474
 C        -5.4775813914        0.2859145874       -7.2087338735
 C        -5.9380717954       -0.6459721370       -5.9486413846
 O        -6.4414216607       -0.0023395585       -5.0243823788
 C        -5.5520212995       -2.1667779132       -5.8446223229
 C        -4.3113576889       -2.3916361556       -6.6447350794
 O        -4.3805188447       -2.4494662307       -7.8263690343
 C        -2.9704279228       -2.2586046469       -5.7366443677
 C        -5.5488824958       -2.5501876786       -4.3537758873
 C        -6.7542695488       -2.8514226774       -6.6026545065
 C        -6.2599671135        4.6887066497       -6.5569716776
 C        -6.2419813822        4.0925401576       -4.0538546828
 C       -12.8282592189        0.5159815199       -2.1730053906
 C       -13.1964294686        1.9790036932       -4.2362903447
 C       -10.3525361647        7.1469075268        0.2714049791
 C        -8.6212454894        5.3466221087        0.6876667112
 C       -11.0181327400        9.1823060244        7.0272273636
 C        -9.2826556348        7.5351695662        7.8318027774
 C       -14.5989220073        4.8391138006        6.1658546743
 C       -14.8851556578        2.5828184949        7.4968799765
 H       -15.3746077425        0.8168603299        4.8177864570
 H       -15.5910003226        1.9597454348        3.4605534554
 H       -16.1423617623        2.3613021934        5.1510335623
 H       -12.5429485911        3.4608633279        9.1498830591
 H       -13.4698168099        4.8845822182        8.4965787600
 H       -10.6159754207        5.1454576243        7.8255628457
 H       -11.0444714941        5.7029976107        9.4263287089
 H        -8.5259599413        7.9827579379        4.9666329344
 H        -9.9843943117        9.0602913381        4.8443648812
 H        -9.0206191877        8.2315556707        2.6540588515
 H       -10.7453238937        8.1838423685        2.8937243844
 H       -10.0085964805        3.9429951023       -0.6176900192
 H       -11.2749235734        5.0880470323       -1.1393387916
 H       -12.7840364672        3.1072625198        0.1493843493
 H       -11.4181621331        2.1143737525       -0.4084640729
 H        -9.9627982553        3.5191189492       -3.4187244524
 H       -10.7332819044        2.8471174539       -4.8978048545
 H        -8.5909627287        1.1821799532       -4.9001838770
 H        -8.1088280596        2.0973302265       -3.4801527366
 H        -5.6391314532        2.3030732617       -7.8597175899
 H        -7.2191362212        1.7728060342       -7.2313534565
 H        -4.4154282478        0.3788498646       -7.0265360753
 H        -5.6654672343       -0.1902993212       -8.1277985690
 H        -2.0152955486       -2.5439267148       -5.9449283432
 H        -3.2527880547       -2.5747081399       -4.7434653737
 H        -2.7332293530       -1.1763602700       -5.7694687260
 H        -4.9746434177       -1.9168344429       -3.6524832005
 H        -5.0782414622       -3.5297497232       -4.3784021534
 H        -6.5946591485       -2.7472502814       -4.0587388633
 H        -6.9788248253       -2.1956527740       -7.4647651335
 H        -7.6492417590       -2.7272898612       -6.0602825098
 H        -6.5407101008       -3.7777184732       -7.0312410518
 H        -5.7567141204        4.1951452845       -7.4442737226
 H        -5.4531046412        5.2873222674       -6.1829230927
 H        -7.1677646693        5.3256298223       -6.8467951716
 H        -7.0176657418        4.7415918872       -3.6908907236
 H        -5.3093208907        4.6993627253       -4.1324542658
 H        -6.1037484934        3.3644299382       -3.3514317265
 H       -12.8853481949       -0.2729341454       -2.8562013656
 H       -13.7126801973        0.6827378700       -1.5869648839
 H       -11.9806283679        0.0795796809       -1.5384895365
 H       -13.0338872745        2.9625635205       -4.5409169160
 H       -14.1922204067        1.6936027655       -4.2194856987
 H       -12.8148760809        1.3068849736       -4.9984956866
 H       -10.0333214944        7.1596526980       -0.8209443855
 H        -9.9585483712        7.9744956443        0.7379659304
 H       -11.4863434886        7.4622263012        0.1519045547
 H        -7.9715494067        6.3310907821        0.6252970656
 H        -8.6855203854        4.8745447584       -0.2923229110
 H        -8.1223801932        4.8337633676        1.5344158073
 H       -11.4629273008        9.5406267710        7.9760328510
 H       -11.4761914500        9.4776832268        6.0629839964
 H       -10.1084395385        9.7529988327        7.0867353185
 H        -9.3064721354        7.4943574674        8.9046447251
 H        -8.6710583795        8.3692310917        7.5150648119
 H        -8.6465648199        6.7106626820        7.4789419301
 H       -14.9255973052        5.3686172371        7.1241232197
 H       -15.5598922097        4.8675227006        5.6659470074
 H       -13.9699007895        5.6065940995        5.6878345390
 H       -14.9200785140        1.4656148029        7.6615951529
 H       -15.8907055088        3.0355154833        7.3548415271
 H       -14.5265018093        3.0166164819        8.5068438681
 Na      -11.4311740494        4.2094227530        4.0705774884
