117

 C        -6.7169538345       10.6568347160       -1.1694776181
 C        -7.0244911305       10.1476887920        0.2511738830
 O        -8.2060691634        9.8471561971        0.4923075996
 C        -6.0260207355       10.2716782900        1.4766742544
 C        -5.2406065618        9.0687689364        1.1992641435
 O        -4.3940381965        9.1142985494        0.3143420624
 C        -5.6181241223        7.5783196469        1.7702084820
 C        -5.3505780851        6.4642266581        0.7453452341
 C        -6.6184610359        5.8928892186        0.2177399035
 O        -7.6958333959        6.2228036270        0.6538620770
 C        -6.5439390468        4.8286834369       -0.9234627465
 C        -6.3456311848        3.5206777620       -0.2040849593
 O        -5.2666002034        3.1536113884        0.2692629089
 C        -7.4553113384        2.5092394762        0.1443335819
 C        -7.2508320874        2.0184810248        1.5642225168
 C        -7.8898620237        0.7438833921        1.6912785599
 O        -8.5103932121        0.2186534693        0.7465253334
 C        -7.7272721732       -0.1933591851        2.9641259222
 C        -8.8001611856        0.4933823221        3.8950921613
 O        -8.4617660866        1.3675424054        4.6848457127
 C       -10.2801627326        0.0127029295        3.9004088318
 C       -11.1788666114        1.2659010091        4.1684541586
 C       -11.1870933225        2.2428367239        2.9228057041
 O       -10.2583262451        2.1883538278        2.1575348520
 C       -12.3994050656        3.2262544777        2.5579378719
 C       -13.2049790677        2.6978982160        1.2831868288
 O       -12.6434121656        2.1510530788        0.3409443952
 C       -14.7345189476        3.2137886210        1.1079954962
 C       -15.2480773446        3.0989072460       -0.3146353539
 C       -14.4434729419        3.9084594710       -1.4440912167
 O       -13.5648937203        4.6846313077       -1.1773619525
 C       -14.9215075126        3.6173524611       -2.8924132096
 C       -13.6605600641        3.1218196136       -3.7420780825
 O       -13.7498627373        2.0436862859       -4.2127129456
 C       -12.4527252231        3.9970573350       -3.8945773137
 C       -11.1451138678        3.3786838556       -4.1774294385
 C       -10.7915477548        2.2105595818       -3.2310658839
 O       -10.3812383796        2.5840964630       -2.1703387895
 C       -10.7589675983        0.7335540363       -3.6190636254
 C       -11.4830009145       -0.1735985623       -2.5887353137
 O       -10.9808183326       -0.4039682057       -1.5210778850
 C       -12.8632403845       -0.7335405120       -2.9014724286
 C       -11.2905320645        0.3528441771       -5.0160957127
 C        -9.2369682849        0.2343061582       -3.5909092962
 C       -16.0538512469        2.6162799586       -3.1389683204
 C       -15.4763592000        4.9979507028       -3.3626166642
 C       -13.2332965476        3.4399206482        3.8321436414
 C       -11.7239716299        4.5809763632        2.1245074996
 C        -8.0907580090       -1.6691314431        2.4995105581
 C        -6.3247652950       -0.1641307110        3.6497560585
 C        -7.8911153497        4.9263052959       -1.7963534428
 C        -5.3298860561        5.1024712557       -1.7458104541
 C        -5.0772841277       11.5013301628        1.4516318845
 C        -6.8313634582       10.2235577634        2.8808465414
 H        -5.9018145406       11.3919662198       -1.1885288023
 H        -7.6485584359       10.8853829818       -1.7507224807
 H        -6.2137866776        9.8641698614       -1.7701857583
 H        -6.6604904039        7.5659381367        2.0280223906
 H        -5.0518203611        7.4313967932        2.6257636383
 H        -4.8481502633        5.6333490217        1.2995542874
 H        -4.6204873356        6.8659005672       -0.0171184545
 H        -7.4308450945        1.6716325174       -0.5694446254
 H        -8.4723260431        3.0336839869        0.0987375947
 H        -7.4990838687        2.8769994760        2.3082540581
 H        -6.2225339925        1.8180820057        1.8483149216
 H       -10.5236847384       -0.7535236080        4.6215127775
 H       -10.5881830894       -0.3364223892        2.8847405463
 H       -10.7982739469        1.8097530730        4.9771402472
 H       -12.1677053932        0.8305130006        4.3233617131
 H       -14.7182737321        4.2462685618        1.4857564262
 H       -15.2981732826        2.6245741088        1.8897549167
 H       -16.2127254332        3.5858681262       -0.3236404039
 H       -15.3802221690        2.1042709148       -0.6042995959
 H       -12.5265078610        4.5927214831       -3.0018912444
 H       -12.7443841972        4.7686319673       -4.6575262777
 H       -10.2913384937        4.0006342246       -4.2187754970
 H       -11.1156310743        2.9212250445       -5.1917848703
 H       -12.7772323684       -1.4098212155       -3.8527862909
 H       -13.5647275538        0.0438159977       -3.1564407833
 H       -13.0823918767       -1.4559407446       -2.0774122754
 H       -10.4620593914        0.4523671745       -5.7861283393
 H       -12.3008354185        0.7169687011       -5.1505686822
 H       -11.5440699188       -0.6812217362       -4.9378842698
 H        -9.0293948101       -0.0881228115       -2.5243865583
 H        -8.5620744950        0.9277006864       -3.9435057848
 H        -9.2635248997       -0.7082707505       -4.1014006326
 H       -15.8478753343        1.6711484469       -2.7774007052
 H       -16.2780783396        2.5947238624       -4.1976485791
 H       -16.9262823110        2.9755492175       -2.5993404039
 H       -16.0160817951        4.9626741258       -4.2745854762
 H       -14.6796036397        5.6315804923       -3.4947088551
 H       -16.1506522702        5.4618225584       -2.5724692004
 H       -12.5544349531        3.8708288201        4.5202278483
 H       -13.6363875999        2.6063632050        4.3882545869
 H       -13.9524348538        4.1600615495        3.5605178280
 H       -11.0530581758        4.9170868638        2.8824467704
 H       -12.5059004484        5.2644343280        1.9972188523
 H       -11.2149844994        4.4335300283        1.1662790534
 H        -8.2322463259       -2.2524761262        3.3728720071
 H        -7.3257171788       -2.0731355168        1.9239093420
 H        -9.1582390190       -1.7277455718        2.0498307133
 H        -5.6142982810       -0.6686640758        3.0088405468
 H        -6.3254244060       -0.7985198976        4.5005471319
 H        -5.9710248071        0.8734943726        3.9866290794
 H        -8.4323380101        5.7584050163       -1.3566028703
 H        -8.3458373516        3.9177038217       -1.7368597748
 H        -7.6663049607        5.1919015917       -2.7864037195
 H        -5.4094704994        6.0296769112       -2.3260783627
 H        -5.0786944325        4.3161672867       -2.5165455794
 H        -4.4150292835        5.2708079981       -1.1666446559
 H        -4.2914624399       11.3633171023        0.6978998984
 H        -4.5850762449       11.6378234080        2.4898091035
 H        -5.6827395213       12.3741633531        1.2508318777
 H        -7.7942973570        9.7401824391        2.8185605218
 H        -6.9189621449       11.1707067590        3.3277059403
 H        -6.3012482568        9.6391551188        3.6231669127
 Na      -10.5822649617        1.3845609970       -0.0662292985
