117

 C       -15.3425678122        1.9786099867        4.6105619003
 C       -14.1439513925        2.9390558857        4.8915967787
 O       -13.1749673534        2.9745085536        4.1762308113
 C       -14.0716480897        3.6548255204        6.2868156547
 C       -12.6426015761        3.7736801948        6.8815084700
 O       -11.6372779065        3.2125729992        6.4849937700
 C       -12.5359668682        4.3837113112        8.3192419251
 C       -11.3823626167        5.5048841004        8.3116408551
 C       -11.8050056926        6.9107319143        7.7892349852
 O       -12.9680486843        7.3323040305        7.8820633999
 C       -10.6218340168        7.8388113673        7.1402988163
 C       -10.4365396299        7.3241409498        5.5996305787
 O       -11.3135028134        6.6603499293        5.2115200393
 C        -9.2174279076        7.8402835478        4.6822042730
 C        -9.5377830959        7.6857792904        3.1688461225
 C        -9.4714761248        6.1909671569        2.7479554353
 O        -9.1731646079        5.1860184231        3.4518311535
 C        -9.7227945940        5.8069497586        1.2322978632
 C       -10.9907089727        4.7965522925        1.0467465461
 O       -11.4422982868        4.2363290904        2.0117667016
 C       -11.9068014256        4.8213026299       -0.2480742092
 C       -12.2695985456        3.3849790754       -0.8405577943
 C       -12.5634603416        3.2816016804       -2.3053095523
 O       -12.4370612197        4.2514132265       -2.9491579379
 C       -12.6269925069        1.7343462202       -2.8917776465
 C       -11.0727567682        1.4814267701       -3.3236192540
 O       -10.5109006553        0.4430145460       -2.9420835920
 C       -10.3556333316        2.5918473724       -4.2133261171
 C        -9.0276057468        2.0709934933       -4.9497110521
 C        -8.2851532338        3.0551464088       -5.8641913318
 O        -8.8648763888        3.6049932064       -6.7952960360
 C        -6.7997234179        3.4497155786       -5.6286798911
 C        -5.7971172822        2.3494697861       -5.9388321888
 O        -4.7258990159        2.3426337584       -5.3345603037
 C        -6.1194890312        1.4440594706       -7.0898699510
 C        -5.4958106569        0.0768065637       -6.8971275972
 C        -5.8283326980       -0.9051003375       -5.6319842161
 O        -6.5552210241       -0.5848518155       -4.7001106994
 C        -5.3811864933       -2.3991750842       -5.6506096375
 C        -3.9734856667       -2.5402633648       -6.3940812499
 O        -3.9833887211       -2.6707207851       -7.6192791723
 C        -2.7099444700       -2.4159074656       -5.6007910423
 C        -5.3766616898       -2.9578952322       -4.2204999396
 C        -6.4921634713       -3.0319522945       -6.5145065391
 C        -6.3005743836        4.7093852317       -6.4643555923
 C        -6.5657522967        3.6660196466       -4.0766839376
 C       -13.0679217388        0.4462630876       -1.9535232536
 C       -13.3750549925        1.6708095509       -4.2190570521
 C        -9.9624358877        7.0585394303        0.3459543596
 C        -8.3448937089        5.1795295451        0.7397138900
 C       -11.0672080870        9.3494819187        7.2922744046
 C        -9.2028363489        7.6477373914        7.8813363926
 C       -14.6558753272        5.0535401854        5.8286979013
 C       -15.0654013599        3.2763158787        7.4232573638
 H       -15.8572207860        1.4570657811        5.3952718050
 H       -14.6995274264        1.1750936606        4.0522341594
 H       -16.0312359769        2.3812960161        3.8877113567
 H       -12.2331369270        3.6340093135        9.0450802529
 H       -13.4755103367        4.8635538127        8.4386500920
 H       -10.5653609627        5.0679634438        7.7831055618
 H       -11.0467894303        5.6486761582        9.4118717515
 H        -8.4351401584        7.0390822112        4.8362541553
 H        -8.6928728805        8.6892650903        4.9833560275
 H        -8.9147036022        8.3177178253        2.6388740219
 H       -10.6103423106        8.0296466756        2.9419174126
 H       -11.4861745511        5.4882850689       -0.9471655429
 H       -12.9360118799        5.1598359229        0.0682911690
 H       -13.2591689915        3.0865976028       -0.2805826043
 H       -11.4666826801        2.7169365424       -0.5488967459
 H       -10.1509897465        3.3932843364       -3.4552055830
 H       -10.9699728158        3.0406658316       -4.9734753337
 H        -9.5456943887        1.2763991859       -5.5390271883
 H        -8.3328770209        1.4736579652       -4.3005765053
 H        -5.6868936643        1.8292891112       -8.0002728888
 H        -7.2348616226        1.3508017003       -7.1994526286
 H        -4.4247059816        0.2254597016       -6.6807114357
 H        -5.6430636277       -0.5973630560       -7.7960152739
 H        -1.9274260530       -2.6383346901       -6.2738030769
 H        -2.6823485599       -3.0096615393       -4.6567951538
 H        -2.3933589084       -1.3691815422       -5.5193140369
 H        -4.5445209609       -2.3743607844       -3.7175892808
 H        -5.4015150042       -3.9761682784       -4.0591077964
 H        -6.2813797447       -2.5633704469       -3.7638152425
 H        -6.1732200100       -2.7584534607       -7.6162488436
 H        -7.5043130546       -2.6198859306       -6.4824921545
 H        -6.4181933714       -4.0950247925       -6.4902349397
 H        -6.9465827081        4.8915695239       -7.3347898761
 H        -5.2199158841        4.7359117004       -6.5888425621
 H        -6.6253724617        5.5138984701       -5.8405159661
 H        -7.4717117088        3.2426728111       -3.5304149942
 H        -6.5534415565        4.7597718448       -3.8122199829
 H        -5.6994889189        3.1446130258       -3.6861194614
 H       -13.0529664343       -0.4520989115       -2.4400303286
 H       -14.0431504956        0.7795374926       -1.5297855923
 H       -12.3381330407        0.4265237053       -1.0491248081
 H       -12.9770146321        2.4998837678       -4.9023535868
 H       -14.4261717911        2.0982676233       -3.9637573296
 H       -13.4438222814        0.5646434925       -4.6283093703
 H       -10.1628046367        6.7871916936       -0.6492735917
 H        -9.1375106704        7.6305632722        0.2169002987
 H       -10.7604243646        7.7576293832        0.6820737569
 H        -7.4942902768        5.5554956075        1.3010271632
 H        -8.2675427077        5.2939382099       -0.2778483006
 H        -8.4178592609        4.2123306999        1.1107063758
 H       -10.9444458705        9.8086708403        8.2749114451
 H       -12.1300112544        9.4627420995        6.9496541977
 H       -10.5114856355        9.8561128447        6.5583526218
 H        -9.3799072249        7.8458884794        8.9553895521
 H        -8.3146003645        8.3198053270        7.5939912171
 H        -8.7521916467        6.6968171078        7.6645934169
 H       -14.4911483504        5.7165040642        6.7092434337
 H       -15.7350661851        5.0718828442        5.7737533817
 H       -14.2084739499        5.6412025276        5.1016292938
 H       -16.0766877257        3.3415008283        7.0792366322
 H       -15.1664856777        4.2104127510        7.9445422504
 H       -14.9423147514        2.4088624863        8.0034797843
 Na      -11.2041195092        4.3497727365        4.4284991422
