117

 C       -15.2529405208        1.9222061206        4.6191310489
 C       -14.0317500514        2.8739243501        4.9336871756
 O       -13.2449292614        3.0393012075        4.0593540706
 C       -14.1686981690        3.8528041293        6.3330583357
 C       -12.7617770567        3.8002427398        6.9745752791
 O       -11.8324433482        3.2203067136        6.4149386868
 C       -12.5288613571        4.5479240563        8.3099423431
 C       -11.2556387635        5.5663061771        8.2773282242
 C       -11.7217508777        6.9484376989        7.7703065222
 O       -12.9373122434        7.2310046705        7.8578969030
 C       -10.6514959034        7.8549919187        7.1060748568
 C       -10.4849520080        7.4250192082        5.6785475234
 O       -11.3456709115        6.7495845675        5.0871586805
 C        -9.2654462211        7.6511863818        4.8161916006
 C        -9.5278909349        7.4164173758        3.2599434458
 C        -9.4725773951        6.0082700759        2.7445670395
 O        -9.0840851745        5.1306748082        3.4910105089
 C        -9.6879428817        5.7770919497        1.2182958044
 C       -11.1009961122        4.9714753497        1.1457239680
 O       -11.3849136886        4.1966961513        2.0136848101
 C       -12.0107433378        4.9726989060       -0.1358142179
 C       -12.2841825094        3.4134894153       -0.6536361151
 C       -12.3362681379        3.2822798655       -2.3244804331
 O       -12.4743671528        4.2352547138       -3.1448735248
 C       -12.5207648673        1.9294691518       -2.8854346067
 C       -11.0026136693        1.4678785008       -3.4183184851
 O       -10.6442740841        0.4024416891       -2.9588192345
 C       -10.3323217371        2.4430890820       -4.3209797327
 C        -9.1139920886        1.9084377942       -5.0968934764
 C        -8.4987028405        3.1222624399       -5.9651344852
 O        -9.0232357608        3.5974246348       -6.9496533417
 C        -6.9599316538        3.4730989000       -5.4722808717
 C        -5.8691567344        2.3292513102       -5.9517901188
 O        -4.6848724277        2.3793999392       -5.4658109375
 C        -6.1466262946        1.2146743251       -7.0099426586
 C        -5.3942225462       -0.1281829821       -6.7929044830
 C        -5.8228779206       -0.9616145082       -5.5721110196
 O        -6.5668344153       -0.6443392673       -4.6892132536
 C        -5.3409538116       -2.4258761785       -5.6423571289
 C        -3.9285937976       -2.5833355704       -6.4396643497
 O        -3.8353858725       -2.7599631868       -7.6036346021
 C        -2.6945332452       -2.4698231760       -5.4211877327
 C        -5.2677924386       -2.9491118384       -4.2159475089
 C        -6.4168062683       -3.2124384865       -6.5245328944
 C        -6.4523183307        4.6408190789       -6.2814593071
 C        -6.7101312440        3.6940953094       -3.9552570937
 C       -12.9242622236        0.7475627013       -2.0163977457
 C       -13.5354877979        1.7077637591       -4.1621300531
 C        -9.7178647878        7.2794812778        0.4297542676
 C        -8.4695911822        5.0915906345        0.7682685064
 C       -10.8911359882        9.3694415251        7.1761747141
 C        -9.1747699614        7.7564052398        7.8033045389
 C       -14.5847137476        5.3248080017        5.8441908613
 C       -15.2180276025        3.3627012438        7.3255580401
 H       -15.9728705922        1.7798179093        5.4343092038
 H       -15.0895790928        0.9345728779        4.2018500293
 H       -15.7165133751        2.6385848875        3.8277357501
 H       -12.1413144227        3.8412148140        9.0826510699
 H       -13.4102290678        5.0211659552        8.4650480519
 H       -10.6782621728        5.1251793005        7.4719466100
 H       -10.6694863736        5.4572599484        9.1600919387
 H        -8.3175232038        7.2792343537        5.2803496347
 H        -9.0709889033        8.8373806482        4.8397898024
 H        -8.9304405154        8.1354237164        2.7635858752
 H       -10.5227151889        7.8256872714        3.1235011271
 H       -11.5053644980        5.5159971917       -0.9460757197
 H       -13.0193648938        5.3257996396        0.0176651754
 H       -13.2418753806        3.0436304917       -0.2439788256
 H       -11.4054921452        2.8155578070       -0.3106544696
 H        -9.9320101969        3.2695000370       -3.5632126713
 H       -11.0349456357        2.9923341299       -4.9796545902
 H        -9.4315753263        1.0236543433       -5.7127589527
 H        -8.4016810324        1.4831798406       -4.4309155961
 H        -5.7818162354        1.5849003247       -7.9760916666
 H        -7.2436215382        0.9492819517       -7.0753369085
 H        -4.2840308904       -0.0990522386       -6.7479600226
 H        -5.6933871095       -0.8262682081       -7.5484100310
 H        -1.8441485826       -2.4459264248       -6.0449417189
 H        -2.5897820519       -3.2374721322       -4.6749628051
 H        -2.4598190951       -1.4515408640       -5.0526528523
 H        -4.4831404944       -2.5128722671       -3.6613574737
 H        -5.3316513696       -4.0632519840       -4.2292243011
 H        -6.2113019851       -2.6626453674       -3.7283205473
 H        -6.2701650247       -3.0100426656       -7.5250049682
 H        -7.4544681849       -2.8126157871       -6.3822974743
 H        -6.3670664372       -4.3103631149       -6.3970941002
 H        -7.2428583512        4.8805179591       -7.0735814744
 H        -5.5122376188        4.3874560774       -6.6149445314
 H        -6.3893702692        5.6644205505       -5.7349763602
 H        -7.2058887696        3.0141018276       -3.2453596343
 H        -7.1456628432        4.7388868795       -3.7839061387
 H        -5.6697231557        3.7125028510       -3.7451525721
 H       -12.5991581172       -0.1728994906       -2.6565530598
 H       -13.9976352730        0.8315116210       -1.8942437384
 H       -12.4447478903        0.7021136633       -1.0226161077
 H       -13.2400082024        2.4291174772       -4.9901443515
 H       -14.6004087873        2.0523324525       -3.9079385995
 H       -13.5008667545        0.6336846780       -4.4325680352
 H        -9.7803816183        7.0561736903       -0.6295746853
 H        -8.8104075580        7.8283220395        0.4175278022
 H       -10.5579827127        7.9525677880        0.6915464519
 H        -7.5732458025        5.6396638037        1.2466706491
 H        -8.4292422024        5.1535946298       -0.3090657126
 H        -8.4650322020        4.1309970811        1.2378284178
 H       -10.6296568643        9.8587740110        8.1034944043
 H       -11.9577348972        9.5349562339        7.1254301586
 H       -10.4423561717        9.7684981452        6.2937673305
 H        -9.2253708154        8.3595258599        8.6954269437
 H        -8.3633600128        8.0933271333        7.2743992947
 H        -8.8444272114        6.6710316870        7.9756872362
 H       -14.3548022794        6.1755852237        6.5419198845
 H       -15.6487304283        5.3804496733        5.7497834655
 H       -14.0632008680        5.7320118507        4.9596600695
 H       -16.2526733387        3.7098095439        7.3070278782
 H       -15.0770506148        3.8946631473        8.2077567345
 H       -15.0826211650        2.2894490709        7.5148267859
 Na      -11.1052678391        4.3547175406        4.4151593928
