117

 C       -15.1711318032        1.9660271639        4.6877709645
 C       -14.2478251406        3.1397529521        4.9564336031
 O       -13.2367600169        3.2000830594        4.2211558914
 C       -14.2648435662        3.9524834126        6.2388239050
 C       -12.8375796947        4.0000670448        6.9179723537
 O       -11.9491309081        3.3189724236        6.4314730534
 C       -12.4645022679        4.6828026747        8.2810557476
 C       -11.1902568592        5.4914291386        8.1117368487
 C       -11.6214276857        6.9309659618        7.7596689858
 O       -12.7229190617        7.3181064050        7.7792568482
 C       -10.5597105343        7.8797143343        7.1126173930
 C       -10.5373749990        7.2875202586        5.6305263737
 O       -11.5798268981        6.7178721372        5.1015065010
 C        -9.2398004666        7.6173778752        4.8485492731
 C        -9.5035345187        7.4855240585        3.3815631309
 C        -9.3984703223        6.0223941469        2.9008946129
 O        -9.0852426185        5.0125653239        3.4509750256
 C        -9.7234363349        5.8186813148        1.2815970964
 C       -11.0680264319        4.9896277728        1.0610525148
 O       -11.3196138664        4.2444434155        2.0211773575
 C       -11.9005946961        5.0194880265       -0.2418303621
 C       -12.2524243623        3.6151617490       -0.7718709423
 C       -12.4738718994        3.3694369778       -2.3080120298
 O       -12.3945321960        4.3628472678       -3.0190087379
 C       -12.4587180165        1.7944042381       -2.9421529407
 C       -11.0218508191        1.3760995103       -3.4821639572
 O       -10.4686627671        0.4141828079       -3.1522781780
 C       -10.3168511544        2.3841918075       -4.3996134562
 C        -9.1738217845        1.8032648053       -5.3087916756
 C        -8.3911544850        2.9415185458       -5.9482442209
 O        -9.0099594052        3.5010476351       -6.8101684529
 C        -7.0082384126        3.3945610041       -5.5284199074
 C        -5.9049957838        2.1667496189       -5.8270762551
 O        -4.7881604401        2.4188628256       -5.6073226226
 C        -6.3382166049        1.0338835683       -6.8358010038
 C        -5.3790179610       -0.1730255205       -6.7631570231
 C        -5.8726457020       -1.0395510292       -5.6255375829
 O        -6.5361550578       -0.5040285978       -4.7715247678
 C        -5.2925786929       -2.5687010493       -5.6169519966
 C        -3.8555983648       -2.6420755504       -6.2857618892
 O        -3.7108328218       -2.8203344449       -7.4919462119
 C        -2.6228379616       -2.5191866576       -5.4091736489
 C        -5.2299693837       -3.1298050159       -4.1807341534
 C        -6.2790691439       -3.4282819110       -6.4802115518
 C        -6.6672795050        4.7743561497       -6.2361896975
 C        -7.0208063519        3.6654873948       -3.9975781263
 C       -12.9754340653        0.9522671773       -1.7605126077
 C       -13.5347745410        1.9862021437       -4.0809237996
 C        -9.6596963295        7.2137258618        0.6105369337
 C        -8.6282649744        4.8480647552        0.6429093739
 C       -10.9348270950        9.4428586468        7.0180664592
 C        -9.1902350344        7.7307289457        7.8055259320
 C       -14.3745579788        5.3953547660        5.8035364001
 C       -15.3275879217        3.3390133427        7.1856171047
 H       -15.7546012475        1.9134706779        5.6264531136
 H       -14.7377292308        1.0312346027        4.5858022126
 H       -15.8488552900        2.1620306331        3.8166698052
 H       -12.0800407008        3.9367670385        8.9502775926
 H       -13.3096312845        5.3625832759        8.6781971730
 H       -10.4206709853        4.9427169773        7.5292404665
 H       -10.7952716169        5.4058504089        9.0845200776
 H        -8.4025504811        6.9872095181        5.2224208086
 H        -8.8688800444        8.6893317757        5.1016385537
 H        -8.7170469981        8.1138187495        2.8134546367
 H       -10.3618549221        8.0153187518        3.1643298602
 H       -11.4251781366        5.6635167606       -1.0656879603
 H       -12.8825890008        5.3443632398        0.0195298161
 H       -13.0060901054        3.2612406145       -0.1751767510
 H       -11.3218732562        3.0204227470       -0.6186080214
 H        -9.8654277075        3.2568487739       -3.8849060403
 H       -11.1204220897        2.8567899199       -5.0695753262
 H        -9.5245453168        1.1671748217       -6.1190692339
 H        -8.5839796776        1.1279601081       -4.7230605589
 H        -6.0798172729        1.5537205243       -7.8021087352
 H        -7.3635603884        0.7186432894       -6.8352073256
 H        -4.3971987896        0.1257040373       -6.4099713213
 H        -5.3038554669       -0.7887005612       -7.6068789955
 H        -1.6713920027       -2.0758542458       -5.8278579690
 H        -2.4665771350       -3.5085955013       -5.0359605002
 H        -2.7105965747       -1.7951232057       -4.6409577470
 H        -4.6061704827       -2.5625731872       -3.5496205008
 H        -4.9637860559       -4.2269283554       -4.3285847530
 H        -6.2110061962       -3.2069492064       -3.7013715095
 H        -6.4072113368       -3.2642019325       -7.5120141518
 H        -7.1776712870       -3.0788370886       -6.0382361399
 H        -6.2447764899       -4.4981505124       -6.2462149715
 H        -7.4657825472        5.0534507792       -6.9283470929
 H        -5.6317285904        4.5428868367       -6.6449297609
 H        -6.5763189540        5.6747914267       -5.6028541885
 H        -6.9933113661        2.8417747857       -3.3321726008
 H        -7.8637246630        4.2706088333       -3.7733279506
 H        -6.1205264207        4.3111483021       -3.8115897987
 H       -12.6993533246       -0.1361152166       -1.9657636168
 H       -14.0219136263        1.1980727255       -1.5423246643
 H       -12.4261363860        1.2981979206       -0.9359071237
 H       -13.2538654546        2.8177648316       -4.6785986006
 H       -14.4511882701        2.2813743697       -3.6470878832
 H       -13.6340459693        1.1128805095       -4.6362444362
 H        -9.5256768260        7.0178741734       -0.4899917747
 H        -8.5783641076        7.7351004017        0.7227489217
 H       -10.4260357969        7.9134617207        0.8015845373
 H        -7.6581265026        5.3412856267        0.6207295834
 H        -8.9956411414        4.6522402075       -0.4521210394
 H        -8.5946103647        3.9565172415        1.3860102222
 H       -10.9370792251        9.9246331147        7.9904210974
 H       -11.9990673508        9.3722337399        6.9788624713
 H       -10.4872202343       10.0276799456        6.1626498238
 H        -9.0666494492        8.3502524720        8.6703671854
 H        -8.3577865574        7.9697685929        7.1907425901
 H        -9.0397559264        6.6730801257        7.9382206026
 H       -14.1052039508        6.1877372306        6.4639947592
 H       -15.3710919718        5.6779861279        5.4187897730
 H       -13.6093585491        5.6096791987        4.9936917411
 H       -16.3589505436        3.6360379680        7.1936641018
 H       -15.2292340256        3.6366500344        8.2607897147
 H       -15.0257264076        2.2503489073        7.1448591496
 Na      -11.1055009726        4.3145410976        4.3723149589
