117

 C       -15.1726555458        2.1039241701        4.7919958548
 C       -14.2912486010        3.3610717873        4.8211931218
 O       -13.5082891031        3.6969277535        3.9264643533
 C       -14.3150115937        4.2262791417        6.1394770334
 C       -12.8282713196        4.0971542237        7.0077515097
 O       -11.8336757368        3.6049103722        6.4145003683
 C       -12.5916305876        4.7679703230        8.4340422726
 C       -11.4122729379        5.6574689555        8.4888208315
 C       -11.6734546621        7.0608975660        7.8414812784
 O       -12.7213091065        7.5426910076        8.1098352453
 C       -10.4675444676        7.8839815380        6.9452296670
 C       -10.2862123858        7.1594850214        5.5736078102
 O       -11.0754085246        6.3966314400        4.9849918345
 C        -8.9854147175        7.3435979791        4.8861321168
 C        -9.1301484683        7.3277621324        3.3414560897
 C        -9.2953363041        5.8594091229        2.6620063927
 O        -9.2325550855        4.8235871901        3.3140149377
 C        -9.5809004555        5.7318557341        1.1794207746
 C       -10.9820782759        5.1181290700        1.0227962517
 O       -11.7066905857        4.7328030131        1.9144423962
 C       -11.6023950539        5.0622832629       -0.3453484893
 C       -11.8196015293        3.5698893716       -0.6894278881
 C       -12.1618369091        3.6440282132       -2.2168490574
 O       -11.9676028939        4.6916585200       -2.9111415586
 C       -12.6105104589        2.1823694162       -2.7170670855
 C       -11.2755837031        1.4733102973       -3.4754408789
 O       -10.7738290028        0.4671558373       -3.1572940747
 C       -10.8045394834        2.2910664562       -4.7051441407
 C        -9.4144890975        1.7233902654       -5.3112770791
 C        -8.6956828158        2.7532162924       -6.1999260633
 O        -9.2285727344        3.2459981411       -7.1568654141
 C        -7.3304884362        3.1311334092       -5.6545885295
 C        -6.0992298217        2.1014554520       -5.9307528860
 O        -5.0194461283        2.4794477399       -5.5930441982
 C        -6.3664751342        0.7693352642       -6.7214712939
 C        -5.4458482225       -0.4302064695       -6.6282107650
 C        -5.8051917711       -1.3280554041       -5.4424906328
 O        -6.5011147598       -0.9603615805       -4.5230785201
 C        -5.1540273986       -2.7686439023       -5.4827961522
 C        -3.6562282681       -2.6859882217       -6.1128878757
 O        -3.3715569961       -2.8728029028       -7.2679144731
 C        -2.4887236108       -2.6017734082       -5.1543908977
 C        -5.2166144023       -3.1810938919       -3.9473439758
 C        -6.0090465530       -3.6156323224       -6.4946027345
 C        -6.8451554603        4.6494048934       -6.1563086092
 C        -7.1449225884        3.1359959713       -4.0855650440
 C       -12.8282516516        1.1148021407       -1.5989905226
 C       -13.6496107800        2.3485586236       -3.9241006328
 C        -9.3838299678        6.9328593327        0.2611123927
 C        -8.5199551780        4.6190514801        0.7247571442
 C       -10.9896607651        9.3058397798        6.7795218126
 C        -9.2302715351        7.8530787285        7.7611224239
 C       -14.4173781773        5.7135754687        5.7093073953
 C       -15.3522081253        3.8117741833        7.2794137717
 H       -16.2395012954        2.3942692735        5.0511686020
 H       -14.8402416973        1.4123418539        5.4804257664
 H       -15.0377976608        1.5794939774        3.7828009628
 H       -12.4468164881        3.7950493468        8.8558989919
 H       -13.4183750033        5.3115870851        8.7754605267
 H       -10.5449105179        5.1011755558        8.0784550001
 H       -11.1427175557        5.7028150171        9.5042674517
 H        -8.2063842704        6.6408362080        5.1458343290
 H        -8.5077326296        8.3422204610        5.3207481988
 H        -8.2660697948        7.8407579458        2.9275328505
 H        -9.9167867056        7.9785382765        3.0202979743
 H       -11.1249302555        5.5082684007       -1.2676325149
 H       -12.5812241285        5.4367481425       -0.2704355638
 H       -12.7584076102        3.1649944144       -0.2577129899
 H       -11.0126522203        2.7622045904       -0.4519278977
 H       -10.6504667988        3.3771429331       -4.3568310530
 H       -11.4672837894        2.3820538861       -5.5616348447
 H        -9.5521477111        0.8731609480       -6.0429849186
 H        -8.7799861548        1.2598755746       -4.6009775213
 H        -6.2958251873        0.9735783846       -7.7969064510
 H        -7.4090084452        0.4533529589       -6.5044215900
 H        -4.3311351283       -0.1139718563       -6.6375441414
 H        -5.6003353047       -1.0482484872       -7.5131647803
 H        -2.2031407648       -1.4944521100       -5.4229940823
 H        -1.6230383046       -3.1736080600       -5.4722271905
 H        -2.6030267175       -2.6107409505       -4.0529411789
 H        -4.9500645142       -2.4018759095       -3.3212072799
 H        -4.6345417299       -4.1353531941       -3.6883677620
 H        -6.2618588545       -3.4028991971       -3.6911143974
 H        -6.0235470825       -3.1091111887       -7.4044911511
 H        -7.0597847193       -3.8934664751       -6.1775300915
 H        -5.5533952751       -4.6540586299       -6.6680198836
 H        -6.9645802062        4.8188422006       -7.2030217952
 H        -5.8667265303        4.7770357654       -5.7032269951
 H        -7.5458548267        5.3628809251       -5.7175604114
 H        -7.4123985102        2.2008124757       -3.5690514318
 H        -7.7963265314        3.9511801355       -3.6458431600
 H        -6.0664441502        3.4189420041       -3.9779041796
 H       -13.2418791187        0.2374029182       -2.2218075432
 H       -13.4440019722        1.4567449140       -0.7760757553
 H       -11.8490059467        0.9656592668       -1.2456081204
 H       -13.1157022471        3.2343574374       -4.4546863289
 H       -14.7105452166        2.6460013414       -3.5408061471
 H       -13.5230198415        1.3939056253       -4.5246014883
 H        -9.3106382709        6.6268795267       -0.7690108438
 H        -8.5089669510        7.5315897573        0.7245230800
 H       -10.1966567861        7.5285743978        0.3769146417
 H        -7.6911795200        5.2038654847        0.5343515478
 H        -8.7669744908        4.2432595573       -0.2420018467
 H        -8.4625193712        3.8277328090        1.4390134486
 H       -11.3869411817        9.6996307001        7.6890206157
 H       -11.8366012680        9.4453776256        6.1768541672
 H       -10.0657051854        9.7800988528        6.4940787391
 H        -9.7043889180        7.7521792386        8.7924417091
 H        -8.8065321475        8.8103690690        7.8244107148
 H        -8.4319666480        7.0413202980        7.5728546214
 H       -14.2238671534        6.5478584412        6.3227099796
 H       -15.2869743534        5.8837135633        5.1480454120
 H       -13.6635915773        5.8455171872        4.8813346826
 H       -16.3909175178        3.5759532803        6.9249789982
 H       -15.5501068671        4.5125812553        8.0599656634
 H       -14.9903042040        2.9934406878        7.9040941546
 Na      -11.3703696691        4.3808735659        4.1550238780
