117

 C       -15.1900908019        2.2116166119        4.9339971623
 C       -14.3541775846        3.3909506597        4.9956059544
 O       -13.7704602158        3.7073250421        3.9385290352
 C       -14.1802033672        4.4124908409        6.2044145418
 C       -12.8217685646        4.2972115566        6.9186161158
 O       -11.9082579302        3.7555753214        6.3610402485
 C       -12.6270204985        4.7499196532        8.4022740718
 C       -11.3998285864        5.7013007195        8.5191377036
 C       -11.6883186069        7.0694292256        7.8622185656
 O       -12.6549078157        7.6982796125        8.1067878642
 C       -10.5399001650        7.7790156041        7.0139462861
 C       -10.1979372347        7.1314861291        5.5932104545
 O       -11.0480079706        6.3555014424        5.0648024033
 C        -8.8083676420        7.4196117362        4.8210365186
 C        -9.0118826823        7.1484288083        3.3572577273
 C        -9.1857494384        5.8131653654        2.7672765387
 O        -9.2268836129        4.7992525480        3.4091902561
 C        -9.3779927432        5.7344882641        1.1653061860
 C       -11.0190090221        5.2179546076        1.0048876275
 O       -11.6588139161        5.0775146323        2.0499054705
 C       -11.7009966100        5.1295773987       -0.3670252367
 C       -11.8340534909        3.6417372717       -0.7741419010
 C       -12.0898477631        3.4444759399       -2.2589489249
 O       -11.9258220545        4.4061672877       -2.9751029512
 C       -12.6199029637        2.1241598870       -2.9028079913
 C       -11.3616785679        1.5264656597       -3.7054129018
 O       -10.8253006627        0.5919771861       -3.1246550228
 C       -10.8830182369        2.2757144915       -4.8495199488
 C        -9.6761481723        1.5586369056       -5.3887708096
 C        -8.7101105293        2.6790049350       -6.1224643993
 O        -9.0319160622        3.1301731636       -7.2016957147
 C        -7.2998173309        3.0303318789       -5.5881022974
 C        -6.1046979680        2.1164986633       -6.1521428922
 O        -5.0533621557        2.3005941026       -5.6650122370
 C        -6.5023240528        0.7974300478       -6.8769559135
 C        -5.4786902245       -0.3831004269       -6.6014446051
 C        -5.7680617717       -1.3222064941       -5.3673921648
 O        -6.5470528441       -1.0005954370       -4.4623809986
 C        -5.0944029506       -2.7967051737       -5.4768840998
 C        -3.5321239866       -2.7601146686       -5.9454814927
 O        -3.4094546383       -2.8363714452       -7.1900904003
 C        -2.3758592980       -2.5125656612       -5.0036444559
 C        -5.1640320655       -3.3930492820       -4.0332881458
 C        -5.9249449929       -3.6490115918       -6.3790837677
 C        -6.9317062586        4.4812407460       -6.1690631624
 C        -7.2039378540        3.1490872204       -4.0772632180
 C       -13.0460299371        1.1810074125       -1.6493459393
 C       -13.8484258376        2.4149756970       -3.8180680957
 C        -9.1720317797        7.0475935505        0.2823795492
 C        -8.3307589776        4.5994270083        0.7651810647
 C       -11.0594182438        9.2476803581        6.6299452462
 C        -9.3006777287        7.7576198735        7.9060840936
 C       -14.3283988330        5.8646763608        5.6210779081
 C       -15.2614916605        3.7355994582        7.1301272295
 H       -16.2216725719        2.6409272682        4.7747693335
 H       -15.1704543338        1.4831928068        5.7684380638
 H       -14.8226323753        1.6534619466        4.0772222132
 H       -12.6232129460        3.8260025034        8.8653688840
 H       -13.5029556955        5.4491964628        8.7128983024
 H       -10.4967169930        5.1841353376        8.3053357312
 H       -11.2934974894        5.8562899929        9.5435809413
 H        -7.9564085672        6.6615021604        5.0940880891
 H        -8.2846635713        8.3614797626        5.0954051280
 H        -8.0791221024        7.5048090747        2.8289503448
 H        -9.7041945429        7.7912901869        2.9348138148
 H       -11.0872763961        5.6380078050       -1.1837723961
 H       -12.6977094884        5.5611174382       -0.3550330373
 H       -12.4278635238        3.0566821549       -0.1058111956
 H       -10.8092882624        3.1337868958       -0.7284700011
 H       -10.7367255896        3.3438914714       -4.4748567100
 H       -11.6667067186        2.3806250953       -5.7254058486
 H        -9.9275029376        0.6714504799       -5.9505244309
 H        -9.0913044315        1.1811428678       -4.5611643717
 H        -6.5342940102        0.8506290982       -8.0117546068
 H        -7.5028470063        0.5668852542       -6.5008826875
 H        -4.5069208451        0.1127194398       -6.4102824691
 H        -5.3275826316       -1.0390531268       -7.4519808387
 H        -2.0576381161       -1.4104076445       -4.9165127415
 H        -1.4706873991       -3.0470784954       -5.4075022636
 H        -2.5548339513       -2.9244331912       -4.0322423193
 H        -4.4175175748       -2.8625530712       -3.4224704593
 H        -4.6977616750       -4.3792717911       -4.1521237549
 H        -6.0593058344       -3.4597464623       -3.4118922064
 H        -5.8823398229       -3.2371899453       -7.4384133204
 H        -6.9014338434       -3.7341810772       -6.0577611326
 H        -5.6077834671       -4.6759701730       -6.4212491299
 H        -6.7180663894        4.4128065126       -7.2489873431
 H        -6.0334813621        4.8303357123       -5.4901635968
 H        -7.7804089346        5.1484969198       -6.0700667431
 H        -7.6715380092        2.2998996331       -3.5630921802
 H        -7.9047824778        3.9471869236       -3.9249773698
 H        -6.1473051316        3.4452059471       -3.6925093180
 H       -13.2613781949        0.2403420899       -1.9846955252
 H       -13.9133774947        1.7520855143       -1.1601105281
 H       -12.2055817970        1.3032448648       -0.9599830264
 H       -13.5717451045        3.2625500173       -4.4559665027
 H       -14.6324463678        2.6962140386       -3.0910380784
 H       -14.0564817010        1.4646829561       -4.4066886957
 H        -8.9578420417        6.6774936487       -0.7328527733
 H        -8.3861065880        7.6817054061        0.7694966518
 H       -10.0888827662        7.6501596515        0.2158760386
 H        -7.3776714210        4.9632960972        1.0008547999
 H        -8.3077002065        4.3279641043       -0.3183171727
 H        -8.7892798705        3.7251009979        1.3079368330
 H       -11.3660481003        9.7664832139        7.4819856192
 H       -11.9300745442        9.2816941276        6.0535121126
 H       -10.1725506015        9.6750604599        6.1992149243
 H        -9.4821816969        7.8180827725        8.9912611704
 H        -8.8596708386        8.7543233143        7.6131153822
 H        -8.6561382975        6.9586510740        7.7064427947
 H       -13.9299543176        6.6608077321        6.2142354430
 H       -15.3913949498        6.0925072020        5.4148675269
 H       -13.8877447438        6.0507438321        4.6134677027
 H       -16.2100253072        3.7522733409        6.6256811961
 H       -15.4116577049        4.2140022726        8.1345278388
 H       -15.0686043547        2.7326955923        7.4953225067
 Na      -11.4368429858        4.3887690283        4.1185837906
