117

 C        -6.9405776118       10.6116897581       -1.3101272327
 C        -7.2695114999       10.2625592000        0.2039315003
 O        -8.3304448734        9.7148572064        0.4376074455
 C        -6.1134850110       10.2182302607        1.2798741046
 C        -5.1843221052        9.0208115421        0.9431412911
 O        -4.2706075841        9.0385208493        0.1200120722
 C        -5.5133291820        7.6982794449        1.6825730900
 C        -5.2546617425        6.5393198056        0.7528927367
 C        -6.6164046124        6.0295209564        0.1999240002
 O        -7.6781561409        6.4286430793        0.6025359733
 C        -6.5057121560        4.8720222680       -0.9440370993
 C        -6.3462421745        3.5934706172       -0.1708325834
 O        -5.2174167302        3.2217111955        0.1440162778
 C        -7.5881105988        2.6151487276        0.1891027164
 C        -7.2960211100        1.9995596426        1.5735981715
 C        -7.9359574225        0.6586033875        1.6738724085
 O        -8.6433293395        0.2717566588        0.7578470810
 C        -7.7822328438       -0.1851031299        2.9685754550
 C        -8.8683920044        0.4959955635        4.0196884892
 O        -8.4250770522        1.3883642832        4.7100428062
 C       -10.3566481393        0.1565112502        3.8903310902
 C       -11.3043277148        1.3291619203        4.1562632359
 C       -11.2145175685        2.2132744161        2.9405103848
 O       -10.2157891782        2.1426603037        2.2650396007
 C       -12.3564232613        3.2151071729        2.5821726950
 C       -13.1571607618        2.8009910677        1.2544385305
 O       -12.7012565996        2.2669598364        0.2594743639
 C       -14.6130385781        3.2649828882        1.1750377278
 C       -15.2914918954        3.1835141591       -0.1421044321
 C       -14.4899713055        3.7932884019       -1.3084051488
 O       -13.6145708672        4.5734874458       -1.0956539294
 C       -14.9249916542        3.5426914521       -2.8138153729
 C       -13.6331425562        3.0828661897       -3.6426682810
 O       -13.6398833988        2.1201193710       -4.3602252725
 C       -12.3545226105        3.9892595558       -3.5863152378
 C       -11.2264654621        3.2349491826       -4.2902517361
 C       -10.6408125564        2.1108224408       -3.2368898267
 O       -10.2946610444        2.5246454891       -2.1338958379
 C       -10.7308537789        0.5476741083       -3.5544552865
 C       -11.4495619581       -0.1883747264       -2.4177815339
 O       -10.9544659798       -0.2827037329       -1.2795315747
 C       -12.8378568026       -0.7354072202       -2.7178446803
 C       -11.3642241792        0.3512603665       -5.0399517575
 C        -9.1774677872        0.1654716551       -3.6172332449
 C       -16.0075555542        2.4831032037       -3.1122891707
 C       -15.4090343577        4.9586389385       -3.2691171075
 C       -13.2712349743        3.3241563719        3.8656200095
 C       -11.7241548147        4.5259777262        2.1415066555
 C        -8.0702562092       -1.6359256432        2.6035579123
 C        -6.3875975568        0.0779548560        3.4991508041
 C        -7.8681139976        4.8424596741       -1.7540547160
 C        -5.2798213235        5.0350951477       -1.8321229784
 C        -5.1415070960       11.4407527845        1.4238705054
 C        -6.8630805131       10.1427860898        2.6177266560
 H        -6.1998891085       11.4784289961       -1.5342346477
 H        -7.8705743054       10.6838697313       -1.8483381213
 H        -6.3830085475        9.7743708110       -1.8114518663
 H        -6.5787224483        7.7214371823        1.8303542374
 H        -4.9690576259        7.7568396518        2.5937681188
 H        -4.6647837243        5.6828656521        1.1933020194
 H        -4.6347238857        6.9924324072       -0.0908208091
 H        -7.4602402117        1.8054970737       -0.5505029866
 H        -8.6191425910        3.0160513980        0.1390950951
 H        -7.7111477930        2.6192914242        2.3352969462
 H        -6.2437422569        2.0131771193        1.8616675875
 H       -10.6258464460       -0.6134140258        4.7015732966
 H       -10.5213948002       -0.2397911805        2.8777533820
 H       -10.9045851479        1.8057850258        5.0233966062
 H       -12.3508593845        0.9028924953        4.2567063156
 H       -14.5797442584        4.2925435926        1.5185962007
 H       -15.1009318830        2.7182553684        1.9747346592
 H       -16.3502213764        3.5274521407       -0.0303450786
 H       -15.3626098045        2.1097378707       -0.4856487447
 H       -12.0768034836        4.2548462431       -2.5264131023
 H       -12.6694881708        4.9617562884       -3.9677095752
 H       -10.4000072041        3.8072527428       -4.5391883967
 H       -11.4440210920        2.7994627298       -5.2107956825
 H       -12.5967833357       -1.7361222147       -3.1416255375
 H       -13.2901092243       -0.1983043312       -3.5533913549
 H       -13.4147625522       -0.9681280791       -1.8243199835
 H       -10.6276802899        0.6826948135       -5.7305520441
 H       -12.4050203426        0.7118623746       -5.0903101257
 H       -11.5601973111       -0.7523840924       -5.1421535496
 H        -8.7771424257        0.3314832627       -2.5634585412
 H        -8.6819523023        0.7758690652       -4.3149622059
 H        -9.0980111160       -0.8943843556       -3.7604860240
 H       -15.8305244548        1.6301612942       -2.4744065279
 H       -16.0045618670        2.1502834763       -4.1414177165
 H       -17.0385573204        2.8717414162       -2.8158574340
 H       -15.7992901312        4.9221311120       -4.2727449947
 H       -14.5399272851        5.5889200211       -3.2809339242
 H       -16.1782156892        5.4386677873       -2.6392324766
 H       -12.6772851569        3.5297258698        4.7169056772
 H       -13.8887000103        2.4867224720        4.1095144331
 H       -13.9827832387        4.1218309512        3.6125927591
 H       -10.9081578691        4.7484610101        2.7623570291
 H       -12.5187815318        5.2763969507        2.1750726441
 H       -11.3664976549        4.4378033800        1.1332642978
 H        -8.2933109904       -2.2854001226        3.4344406188
 H        -7.1080743600       -2.0218332400        2.1387950741
 H        -8.9292597927       -1.6909167509        1.9653146703
 H        -5.6698229394       -0.3431770197        2.8158658211
 H        -6.2798816620       -0.5920450221        4.3393802862
 H        -6.1718670441        1.0691776221        3.7415820240
 H        -8.5845310991        5.3572659654       -1.0630086266
 H        -8.0030137458        3.8391086630       -2.0323717561
 H        -7.8270301931        5.4759897903       -2.6409459921
 H        -5.0797315246        6.0367854071       -2.1970798508
 H        -5.3746283474        4.4165022414       -2.7051929148
 H        -4.3108995828        4.7448047706       -1.3454928735
 H        -4.6001238798       11.5039421142        0.4567654229
 H        -4.4260276292       11.4460343173        2.3072775561
 H        -5.7940508009       12.3104190476        1.4382908093
 H        -7.7009145678        9.4592797754        2.6416467647
 H        -7.2114231335       11.1402952968        2.8176218515
 H        -6.2536170796        9.9055846727        3.4929565059
 Na      -10.4136760936        1.3981500977       -0.1236840177
