117

 C       -15.3916599643        2.4492607718        5.1924003939
 C       -14.4777461178        3.6589315051        5.0330200666
 O       -13.6769596953        3.7621047664        4.1048530596
 C       -14.4663358402        4.6846631840        6.2843737548
 C       -12.9716999156        4.5355078382        6.8521958264
 O       -12.1240460657        4.0369638472        6.2595448348
 C       -12.5164999333        4.9127394061        8.3190601316
 C       -11.2382162342        5.8988728674        8.2888844264
 C       -11.5315989134        7.2578135209        7.7603975069
 O       -12.7075488660        7.6727399283        7.8001986777
 C       -10.3268346286        7.9812459194        7.0148778600
 C       -10.0250843915        7.0704891941        5.7614858931
 O       -10.9941961059        6.5003386397        5.2745200351
 C        -8.6802737479        6.8305869916        5.1492767606
 C        -8.7674650626        6.9599538579        3.6524565966
 C        -9.2111361966        5.7385882654        2.8523650226
 O        -9.2591048634        4.7006585588        3.4222928902
 C        -9.2164744927        5.7614990608        1.3317506970
 C       -10.8406962468        5.4870856237        0.8043325633
 O       -11.7476872163        5.7817117099        1.5688799833
 C       -10.9864252739        5.0659574114       -0.6130349510
 C       -11.6025189262        3.6840360611       -0.8097566305
 C       -11.9755593497        3.6288015330       -2.3087013770
 O       -11.8871838704        4.5955503742       -2.9959828176
 C       -12.7960702041        2.3590303884       -2.8871997424
 C       -11.6161621978        1.5301933675       -3.7118647826
 O       -10.9896193379        0.6325318128       -3.1979313483
 C       -11.1942959526        1.9837145556       -5.1967858661
 C        -9.8185115533        1.2708702757       -5.5948783661
 C        -8.9315108340        2.2270734759       -6.4062929017
 O        -9.1682379412        2.3181073223       -7.6405593354
 C        -7.6008072221        2.8480263725       -5.7036396922
 C        -6.2682503344        1.7104486878       -5.9781469607
 O        -5.0802987690        1.9284924604       -5.7105836013
 C        -6.7324126807        0.4663261570       -6.6788957375
 C        -5.6472838424       -0.6387217125       -6.5703527433
 C        -5.6236634440       -1.5498525428       -5.3623588335
 O        -6.1968835738       -1.2271626278       -4.3431656611
 C        -4.9388400968       -2.9291458791       -5.3054444914
 C        -3.4976110300       -2.6139822614       -5.7128489935
 O        -3.2119302360       -2.5536679595       -6.9169718884
 C        -2.4715859738       -2.3037663993       -4.6130561666
 C        -5.0882031198       -3.5492689432       -3.8354313896
 C        -5.5472336432       -3.9998464979       -6.2566228882
 C        -7.1339638969        4.1723750661       -6.1947818577
 C        -7.7586294767        2.6684298674       -4.1349837740
 C       -13.3899449174        1.4619764939       -1.7253364706
 C       -13.8521848948        2.8875459175       -3.9806588043
 C        -8.4334472884        6.9160669027        0.6289314214
 C        -8.5200049287        4.2724128512        1.0159376084
 C       -10.7208489630        9.4202113816        6.5881966442
 C        -9.0404124400        8.0320837959        7.9494582654
 C       -14.4931901814        6.0288954581        5.5303252389
 C       -15.5210028946        4.3209394534        7.3984323148
 H       -16.3678106208        2.9340960608        5.3087520372
 H       -15.1385439058        1.9100159166        6.2165406949
 H       -15.4130994277        1.7222098893        4.4124824048
 H       -12.3484855065        4.1371021938        8.9825799193
 H       -13.3493257330        5.5786769120        8.6950594552
 H       -10.4040744505        5.4372760200        7.8390695029
 H       -10.9923104490        5.8834352561        9.3331974765
 H        -8.3386857260        5.7059240128        5.4825594420
 H        -7.8482818300        7.4428754310        5.5728918620
 H        -7.8013814425        7.3155349760        3.2890229217
 H        -9.3521741975        7.8148152095        3.5377964191
 H       -10.0831343327        5.2253492851       -1.2011815789
 H       -11.6571008037        5.8400232518       -1.0540203143
 H       -12.5140809669        3.6898121501       -0.1564053468
 H       -10.9695482301        2.9383943721       -0.2452731087
 H       -11.1673300278        3.0991043506       -5.3587899713
 H       -12.1493469248        1.6255959761       -5.7875134305
 H        -9.9613595929        0.4377690401       -6.2563262850
 H        -9.3233632494        0.9727014368       -4.6574177141
 H        -6.8236274675        0.8274976059       -7.7508589846
 H        -7.6785988007        0.0673001376       -6.3581375038
 H        -4.6442020969       -0.1208788377       -6.4353274250
 H        -5.4206834404       -1.2086200201       -7.5007964100
 H        -2.9365125370       -2.1270895102       -3.6779696095
 H        -1.8273697721       -1.3575845307       -4.6118940324
 H        -1.8921895628       -3.2374724620       -4.6379430489
 H        -4.7327341324       -2.8858276764       -3.0028265473
 H        -4.3476395649       -4.2846597900       -3.6897124906
 H        -6.0841580437       -3.9527419950       -3.6480058896
 H        -5.2643071730       -4.0395911403       -7.3994752584
 H        -6.6257430562       -3.9143575092       -6.1696569270
 H        -5.3784179218       -5.0193163966       -5.9171396668
 H        -7.2893030188        4.0581916292       -7.2756280555
 H        -6.0332937582        4.1670440903       -6.1351332183
 H        -7.5390083237        4.9975231573       -5.6842926935
 H        -7.6769632112        1.5521211250       -4.0278741564
 H        -8.6543857727        3.0505969862       -3.6712860945
 H        -6.8383888671        3.1065047951       -3.6719722676
 H       -14.0445988184        0.7873061465       -2.1756883916
 H       -13.9830201609        2.1000504622       -1.0144949963
 H       -12.4893181234        0.8642444684       -1.3855349814
 H       -13.2265873767        3.4664879466       -4.7399689774
 H       -14.6633434371        3.3760435998       -3.3496085360
 H       -14.1703564406        1.8947321733       -4.4509224463
 H        -8.9862555122        7.0691816914       -0.2924971463
 H        -7.4628088656        6.6257960956        0.5060805149
 H        -8.4489163896        7.8743468998        1.2987956932
 H        -7.4374429438        4.2980646671        1.2917097683
 H        -8.6704659092        4.0801831363        0.0031004969
 H        -9.0392432438        3.4656413137        1.4760631126
 H       -11.0939264791       10.0016248373        7.4440038356
 H       -11.5486387271        9.2741738347        5.8421713062
 H        -9.9020291196        9.9795349812        6.1144245124
 H        -8.5055399703        8.9974227636        7.8865759243
 H        -8.3445519228        7.1656570787        7.6308268878
 H        -9.3925318374        8.0601509612        8.9223489425
 H       -14.5561246703        6.9736730788        6.0281918812
 H       -15.2043419086        6.0565590151        4.6971380969
 H       -13.5903088351        6.1156548771        5.0010214851
 H       -16.3874584145        3.8579271084        7.0067282116
 H       -15.8376429715        5.0400565163        8.1823634803
 H       -15.2125901031        3.5020528808        7.9473157926
 Na      -11.5771007161        4.6677802014        3.6450435995
