117

 C       -15.4609007249        2.5497088068        5.2634940315
 C       -14.4228162875        3.6612562952        5.1204628749
 O       -13.6972463661        3.6998744116        4.1047308361
 C       -14.3315386011        4.6322596297        6.2307036408
 C       -12.8901115156        4.4939357442        6.8527389774
 O       -12.0181448203        4.0540709598        6.1461087353
 C       -12.5746683875        5.0047633543        8.3065726464
 C       -11.3542206575        5.8713191652        8.2912765013
 C       -11.5385720484        7.2175357400        7.6973869613
 O       -12.5736843867        7.9071242162        7.6127856285
 C       -10.2958959029        7.9994745215        7.0787405135
 C       -10.0500908365        7.0621721526        5.7781454236
 O       -10.9984515073        6.6296747388        5.2325610241
 C        -8.6447827714        6.7077493412        5.1761339078
 C        -8.6041649230        6.9681702250        3.5951116009
 C        -9.1665713012        5.6218138879        2.8229065529
 O        -9.4849552565        4.6327971033        3.4753064072
 C        -9.2041584840        5.5766648357        1.2701386234
 C       -10.7119705777        5.5320184163        0.7412688229
 O       -11.6796090451        5.6747901438        1.4531580869
 C       -10.8592059905        5.1332314658       -0.6647310945
 C       -11.6649346550        3.8070603200       -0.8649533799
 C       -12.1809884786        3.8338417747       -2.3330251583
 O       -11.8238952429        4.7774774056       -3.0188336047
 C       -12.6674743370        2.4203493082       -2.8935289205
 C       -11.5520854683        1.5732013471       -3.6953255479
 O       -11.0103846384        0.5793701509       -3.2317676853
 C       -11.1225440933        1.9434224184       -5.1789131853
 C        -9.9470418057        1.1651159377       -5.6302887878
 C        -8.9084951098        2.0427666522       -6.3856365401
 O        -9.0744659276        2.2754514407       -7.5555679275
 C        -7.5964250180        2.6202655151       -5.7435691401
 C        -6.5011398407        1.6312310734       -6.1206442144
 O        -5.3944098401        1.8753636473       -5.5973998268
 C        -6.7360631509        0.2516080358       -6.7844318939
 C        -5.6136856864       -0.7553890348       -6.5870472780
 C        -5.8032110978       -1.5396304156       -5.2526298881
 O        -6.2124054394       -1.0355208336       -4.2728416102
 C        -4.9062667821       -3.0779895841       -5.2516198586
 C        -3.4013964628       -2.7151684568       -5.6917047409
 O        -3.1407297180       -2.4705271459       -6.8298356401
 C        -2.4650992770       -2.2864195525       -4.5064598030
 C        -5.0249533610       -3.6631033841       -3.8429360206
 C        -5.3675348105       -4.1894542861       -6.2602134759
 C        -7.4588305533        4.1764487267       -6.2463837881
 C        -7.7479742372        2.6610614713       -4.0984639250
 C       -13.4090256718        1.6921542333       -1.7295507977
 C       -13.6530264276        2.9342692980       -3.9534996754
 C        -8.4295439176        6.7046843019        0.6183437119
 C        -8.4160390167        4.2403496877        1.0499472142
 C       -10.7513708045        9.3644973319        6.6229732014
 C        -9.0481802058        8.0391901297        8.0460009752
 C       -14.6582787188        6.0534305145        5.6606208255
 C       -15.4627082658        4.6238916452        7.3713141872
 H       -16.5148185927        2.8733646674        5.3526465340
 H       -15.1920263188        1.9413563017        6.1468898770
 H       -15.3849279981        1.8496951176        4.3443779038
 H       -12.4403354073        4.0226276722        8.9751682474
 H       -13.3884167692        5.5366571434        8.7824797650
 H       -10.7319073405        5.3782774204        7.5990743681
 H       -10.8170870615        5.7786065774        9.2375586680
 H        -8.4422958493        5.6143333170        5.4004415819
 H        -7.7888611005        7.1875458223        5.7029161379
 H        -7.6368146114        7.2707333853        3.3066278637
 H        -9.2705521317        7.9333186652        3.4553047854
 H        -9.9708915787        5.1281497386       -1.2580885225
 H       -11.4334072080        6.0489331165       -1.1319140669
 H       -12.2302438838        3.5146161926        0.0660068900
 H       -10.8972816060        3.1088378148       -0.8376094411
 H       -10.8768386963        3.0736194361       -5.3132330119
 H       -12.0884053205        1.7872871014       -5.7318876014
 H       -10.1906270235        0.4026852397       -6.3093469961
 H        -9.4562949461        0.7846449629       -4.7175043115
 H        -7.0073049015        0.4083311772       -7.8570654804
 H        -7.6235108514       -0.2073117885       -6.2630421361
 H        -4.6260225980       -0.3802898583       -6.6810804445
 H        -5.6236951805       -1.5403672011       -7.3933622105
 H        -2.7838115797       -2.0546604563       -3.5372486795
 H        -2.1172708661       -1.2995254556       -4.7816703515
 H        -1.6032947871       -3.0102051596       -4.6333498849
 H        -4.7344927129       -2.9752201806       -3.0055522341
 H        -4.2093397059       -4.3509956220       -3.7104728408
 H        -5.9470962555       -4.2430658012       -3.6855729925
 H        -5.0416024901       -4.0558091555       -7.2265391506
 H        -6.5034509132       -4.2437304375       -6.2802182711
 H        -5.0466380091       -5.1889530643       -5.9993635734
 H        -7.6335558123        4.2268134083       -7.3615595752
 H        -6.4508881651        4.4047445145       -6.1288203022
 H        -8.0423205553        4.7674263649       -5.4668393505
 H        -7.6702660930        1.6142248957       -3.6619342236
 H        -8.7856867659        3.1150118722       -3.9639823604
 H        -7.0088266020        3.2863147253       -3.6657689978
 H       -13.9819923570        0.8293723070       -2.2988464829
 H       -14.0889679508        2.2988662906       -1.2180715220
 H       -12.5516388900        1.1596246615       -1.2984087847
 H       -13.0495975396        3.6954016133       -4.5220342878
 H       -14.5179336447        3.2613783353       -3.3457991501
 H       -13.8541293886        2.0958051299       -4.6032842268
 H        -8.6977279349        6.7315135103       -0.4875946814
 H        -7.3573246243        6.6225584286        0.8569737256
 H        -8.8508999122        7.5928489940        1.1249895005
 H        -7.3814671440        4.4326575223        1.5573635290
 H        -8.3138753582        4.1482249361       -0.0500345794
 H        -8.8619370075        3.2955585223        1.3981230642
 H       -11.0636847970        9.8695549380        7.5564129611
 H       -11.5381144254        9.2936575259        5.8552828285
 H        -9.9860542335        9.9669437948        6.2721200593
 H        -8.1483152682        8.4198500817        7.6525818648
 H        -8.9404105066        6.9941717350        8.2197031673
 H        -9.3027407046        8.6962681413        8.9224991994
 H       -14.8007974904        6.9142860666        6.3342549880
 H       -15.5015688032        6.0053233789        4.9732186369
 H       -13.8837087151        6.4066918702        5.0252260391
 H       -16.4220929162        4.7269338563        6.8305520922
 H       -15.3907144257        5.3462401657        8.1162376751
 H       -15.7309267907        3.7021534056        7.8384480665
 Na      -11.6510925779        4.8964249607        3.6959109794
