117

 C       -15.5908881461        2.4550799692        5.2308006087
 C       -14.4286374944        3.5880342629        5.1621588810
 O       -13.7798361548        3.6544104330        4.1426601222
 C       -14.3274425323        4.7699690573        6.1581528672
 C       -12.8712067846        4.5875244826        6.8530654848
 O       -11.8939959199        4.1847042804        6.1119108427
 C       -12.6301818054        5.0654811941        8.2308043268
 C       -11.3653922935        5.8926776530        8.2881939074
 C       -11.5560529588        7.3193468510        7.6052681827
 O       -12.5703679806        7.8734103814        7.6004214322
 C       -10.2027297496        7.9083809992        7.0274770356
 C       -10.0374124774        7.0784569270        5.7069895129
 O       -11.1179988499        6.8050997469        5.1602145372
 C        -8.6292324980        6.6801432436        5.1404248817
 C        -8.5680219192        6.7564910028        3.5986710298
 C        -9.0870054538        5.5653054855        2.9457737866
 O        -9.6615095169        4.6880789283        3.6467481729
 C        -9.0591694184        5.4520281029        1.3472561351
 C       -10.5160860230        5.3934101937        0.8104427105
 O       -11.5104967830        5.5703870250        1.4973996077
 C       -10.6995654222        5.2653504633       -0.7217310319
 C       -11.5328436764        3.9651783956       -0.9758120840
 C       -11.8654784450        3.7897103851       -2.4613672005
 O       -11.9515428452        4.8435102871       -3.1326875071
 C       -12.5500110824        2.5750429161       -3.0080882372
 C       -11.4814139718        1.6264489405       -3.6613855785
 O       -11.1835996466        0.6513498611       -3.0367121836
 C       -11.0669896815        1.9823433798       -5.0236541550
 C       -10.0283594805        1.1071815457       -5.6478120387
 C        -9.0304267732        1.9191952245       -6.4607928386
 O        -9.0882164229        2.2004031134       -7.6152085207
 C        -7.8475909792        2.4617367757       -5.6800877689
 C        -6.5506201501        1.5305758610       -5.9425203720
 O        -5.4840777340        1.8361118145       -5.5662855031
 C        -6.8078480394        0.1285839457       -6.8146423370
 C        -5.7013069620       -0.9467113411       -6.6466598212
 C        -5.6375546557       -1.7333730283       -5.2605847490
 O        -6.1654001988       -1.1416289210       -4.3151584438
 C        -4.9377849856       -3.0578500467       -5.1255349894
 C        -3.3990466841       -2.4808833969       -5.5337539087
 O        -3.1118007665       -2.5256219690       -6.7057640444
 C        -2.4098119889       -2.2779531861       -4.4799826357
 C        -4.9817717030       -3.6969944472       -3.7906465590
 C        -5.3061686720       -4.0635100486       -6.2614044598
 C        -7.7188819086        3.9063244785       -6.2499838520
 C        -7.7553333875        2.6372852323       -4.1714365861
 C       -13.3143183994        1.8086947922       -1.8880835079
 C       -13.7627808022        2.9809698694       -4.1253099365
 C        -8.4418937905        6.6378448339        0.5777096845
 C        -8.3324614828        4.1740963494        0.9200995393
 C       -10.6014019320        9.3570145746        6.5884726987
 C        -9.0668254765        7.9882580647        8.0948506398
 C       -14.5420112996        6.2727524698        5.6785476272
 C       -15.4247907649        4.7026238558        7.3642237996
 H       -16.6459728588        2.8616765857        5.2882336041
 H       -15.4251081749        1.8323994983        6.0373701044
 H       -15.5346212617        1.8248066601        4.3055379643
 H       -12.6577422037        4.0090813179        8.7378024876
 H       -13.4228778263        5.6740520681        8.6773645058
 H       -10.4971142167        5.2637957256        7.8857959132
 H       -11.1577411755        6.0431470467        9.3755508699
 H        -8.3222793997        5.7827099561        5.4859104905
 H        -7.8934592814        7.3889622069        5.5353014715
 H        -7.4673030955        6.7025325101        3.3519778096
 H        -8.9825613241        7.7501102305        3.1742032599
 H        -9.7700066536        5.2392335189       -1.3575943597
 H       -11.2484321504        6.1031021633       -1.1697816860
 H       -12.5041230537        4.1543375429       -0.5945881113
 H       -11.1623152745        3.2219531023       -0.2987275581
 H       -10.7768262372        3.0387469643       -4.9634087990
 H       -11.9456366311        1.9930979205       -5.5831724863
 H       -10.5876910241        0.4881673256       -6.3783261655
 H        -9.4845665989        0.5398911298       -4.9275302062
 H        -6.7644248208        0.4620549929       -7.8398320905
 H        -7.8560085685       -0.2627936830       -6.6243928866
 H        -4.8058302550       -0.4094634278       -6.8542348440
 H        -5.6616924578       -1.6667060771       -7.4351257693
 H        -2.7133431618       -2.1415183527       -3.3999581065
 H        -2.1335363273       -1.2704225691       -4.5947328387
 H        -1.6147476792       -2.9205960250       -4.7478847544
 H        -4.8578303623       -3.0171383313       -3.0109534553
 H        -4.1489804236       -4.4515581918       -3.5221593886
 H        -5.9123235632       -4.2766650144       -3.7606206192
 H        -5.0529867654       -3.6962933106       -7.2148752881
 H        -6.3117280719       -4.4483796629       -6.3405827740
 H        -4.6560913610       -4.9240924989       -6.1460760740
 H        -7.7127580683        3.8943956274       -7.3211564207
 H        -6.6878043494        4.2058193393       -5.9226882816
 H        -8.4483184618        4.4988316658       -5.6356306659
 H        -7.5833272291        1.7083117510       -3.6749804381
 H        -8.6482805566        3.2357653787       -3.8423301884
 H        -6.8271261603        3.2219813420       -4.0877121761
 H       -13.7209937148        0.9177733835       -2.4004115531
 H       -14.1871931837        2.3933971333       -1.5656449905
 H       -12.5966302393        1.4126560358       -1.2156639175
 H       -13.3897282663        3.6715313497       -4.7797977833
 H       -14.6041793428        3.2347869093       -3.5830243813
 H       -13.9041634873        2.0633271926       -4.6002542159
 H        -8.2261603120        6.3020915894       -0.4529491158
 H        -7.4666695944        6.9603103660        1.1603314402
 H        -9.1413035267        7.4065654840        0.5993785767
 H        -7.3912487923        4.0739883283        1.4669821012
 H        -8.2335470783        4.2202189719       -0.2442167804
 H        -8.9714041634        3.2137377413        1.1440809153
 H       -10.8158403495        9.7706256513        7.5485910728
 H       -11.3518861072        9.3664305983        5.8344708571
 H        -9.8131124886       10.0545605055        6.2640012482
 H        -8.0896500397        7.8702062901        7.6861903559
 H        -9.2459807515        7.3002857418        8.8556677127
 H        -9.1220391271        9.0603930217        8.3988688667
 H       -14.4204228664        7.1135697144        6.3527579608
 H       -15.5284478917        6.3632042839        5.2400946028
 H       -13.8491532265        6.5465524695        4.7982262584
 H       -16.4473160019        4.9658478893        7.1026157120
 H       -15.2258552164        5.2001348514        8.2872210346
 H       -15.6696874630        3.6200520899        7.6123508153
 Na      -11.8616788582        5.1030674267        3.8630601166
