117

 C       -15.6663461458        2.6789633517        5.3125358054
 C       -14.4417810756        3.6742403246        5.1296866976
 O       -13.8945136236        3.8177240515        4.0385229029
 C       -14.3078908910        4.7905671216        6.2091802271
 C       -12.9228053785        4.7090137447        6.7765494706
 O       -11.9997515945        4.6375616657        6.0757990655
 C       -12.6501445448        5.1788712451        8.3692138595
 C       -11.3688896792        6.0184209821        8.5226090300
 C       -11.5045269551        7.3535056679        7.7512093554
 O       -12.6249895185        7.8692438493        7.6054686661
 C       -10.1149196722        8.0211371008        6.9564993798
 C       -10.0466138781        7.2410788672        5.5940343976
 O       -10.9686791573        7.2296021470        4.8061259266
 C        -8.6372201986        6.7813470525        5.2860775994
 C        -8.2913623719        6.5857930832        3.7411430875
 C        -9.0347702445        5.3281699663        2.9282212641
 O        -9.7395544572        4.5914940779        3.5086888436
 C        -8.8477790361        5.2602636912        1.4743159031
 C       -10.3809943600        5.2466611767        0.8255088014
 O       -11.3425426367        5.1944770725        1.5618148409
 C       -10.5585576071        5.2562475746       -0.6672712573
 C       -11.5126147132        4.1516565760       -1.2864514143
 C       -12.0993293608        4.1387641626       -2.7140202995
 O       -11.8337231864        4.9860517505       -3.5259436932
 C       -12.8232363493        2.9053818257       -3.0262219362
 C       -11.5905029147        1.7833507362       -3.5375090617
 O       -11.1897634342        0.7995592727       -2.9084950014
 C       -10.9862448319        2.0728981065       -4.9054066029
 C       -10.2883325762        0.7919730715       -5.6412881251
 C        -9.1414729651        1.5205079820       -6.4289280587
 O        -9.3769799595        1.6765499453       -7.6192014697
 C        -7.9426474560        2.1721358368       -5.8241461539
 C        -6.5622350926        1.3062581256       -5.9895518651
 O        -5.4593029944        1.6584839133       -5.5128689011
 C        -6.9301858801        0.0402818565       -6.7120956768
 C        -5.8647224832       -1.0464838551       -6.5783704940
 C        -5.6880701217       -1.6004214925       -5.2056516203
 O        -6.3209560344       -1.2710019178       -4.2622302575
 C        -4.7744332643       -3.0194926004       -5.1796803251
 C        -3.2561235301       -2.5746412675       -5.4824660568
 O        -2.7251111367       -2.3784903100       -6.5471017820
 C        -2.3369999737       -2.1606791281       -4.2766307673
 C        -4.9779763741       -3.5750486445       -3.7357226426
 C        -5.1986791531       -4.0220421600       -6.2509869907
 C        -7.4737956197        3.5554388643       -6.3717221289
 C        -8.1462023268        2.2302856167       -4.3087929365
 C       -13.5249162799        2.0602421356       -1.8225970537
 C       -13.7674735564        3.0482102418       -4.2222600300
 C        -8.0767036374        6.5186710631        0.8722482720
 C        -8.2104894538        4.0326140227        1.0447043811
 C       -10.3231291249        9.5144110001        6.5478856533
 C        -8.9359464582        7.7614040210        7.9167445575
 C       -14.4416038607        6.2792023966        5.4562525188
 C       -15.4246376862        4.6240727700        7.2708506953
 H       -16.4904349745        3.3022534838        5.4209460645
 H       -15.5948546692        1.9204969407        6.1167733460
 H       -15.9247352236        2.2571261597        4.3386753683
 H       -12.7606286129        4.2892402020        8.9914021714
 H       -13.4362461591        5.8326819180        8.6981796843
 H       -10.5936310650        5.4994071824        7.9856201742
 H       -11.0298304630        6.1747643025        9.5814223984
 H        -8.2914262417        5.8090001520        5.8719879306
 H        -8.0138094673        7.6201873993        5.6224374539
 H        -7.2222607782        6.5866356869        3.6949868888
 H        -8.7509021033        7.4460350874        3.2862564618
 H        -9.6971309402        5.2678591849       -1.2323564968
 H       -11.0797801436        6.1679765378       -1.0235080425
 H       -12.3359428866        3.8968886933       -0.5171478353
 H       -10.9269216860        3.1685643044       -1.2384890319
 H       -10.3355280846        2.9261623905       -4.6563940215
 H       -11.7806581576        2.4911160898       -5.5680897815
 H       -11.0493975316        0.4429814314       -6.2934118101
 H        -9.8258019330       -0.0179193665       -5.0125410796
 H        -7.0618687300        0.3408849229       -7.7730971818
 H        -7.8856037401       -0.2324680903       -6.3658554306
 H        -4.9008586372       -0.7699441734       -7.0621665692
 H        -6.0112917006       -1.9788465339       -7.1785528774
 H        -2.7699670322       -2.2666424799       -3.3608378510
 H        -2.0782539484       -1.1143111713       -4.1057330336
 H        -1.5039661343       -2.8943041239       -4.4077088749
 H        -4.7913421977       -2.7629948824       -2.9596749796
 H        -4.4070632360       -4.3757458793       -3.4293374011
 H        -5.9551861827       -4.0204114352       -3.6402635436
 H        -5.2748745232       -3.6780675650       -7.2820988124
 H        -6.3026831743       -4.2641698308       -6.0680024932
 H        -4.5570086953       -4.9257660992       -6.2623139491
 H        -6.9231019883        3.5391812747       -7.3218783942
 H        -6.8779122176        3.9194844026       -5.6379234520
 H        -8.3669373821        4.1278737662       -6.3318199429
 H        -8.8143986441        1.4517674028       -3.9443029164
 H        -8.5000400553        3.1950644149       -4.1379095131
 H        -7.2255471181        2.0372627580       -3.8625103867
 H       -13.8718515447        0.9993203964       -2.0998796674
 H       -14.3141175758        2.6722486233       -1.4847760744
 H       -12.7005304514        1.8193148534       -1.1448506139
 H       -13.1632946675        3.6794120112       -4.9306968034
 H       -14.6020762640        3.6658285114       -3.7981991627
 H       -14.1141794619        2.0684826461       -4.5126313499
 H        -7.5490711482        6.1222663485        0.0377567792
 H        -7.2952936444        6.8841356726        1.4642316659
 H        -8.8939448127        7.2280260325        0.6037532897
 H        -7.1839029825        3.9350855191        1.4729923900
 H        -8.2796201365        3.9328022332        0.0309784384
 H        -8.6734923861        3.2861589315        1.5827297236
 H       -10.1746646706       10.2468032022        7.3627675451
 H       -11.0402868244        9.5467516201        5.7018406857
 H        -9.4463100498        9.8439051298        5.9915343606
 H        -8.7362963757        6.6817922242        7.7778738590
 H        -9.2613527869        8.0973972057        8.9749837930
 H        -7.9770260653        8.2662025958        7.6279432476
 H       -13.6288777228        6.9553151639        5.7864372860
 H       -15.2982071897        6.9362672521        5.7286215171
 H       -14.3364374610        6.3388762830        4.4114328942
 H       -16.4246965449        4.4334780786        6.8209648544
 H       -15.6544955686        5.6007552151        7.7085370283
 H       -15.3786021094        3.8727190250        8.0214391174
 Na      -12.2860615992        5.2673666199        3.9529865509
