117

 C       -15.6611228312        2.6863420448        5.2310436034
 C       -14.5675042616        3.8155060574        5.1094125126
 O       -13.9919593649        3.8397342420        3.9498495636
 C       -14.3470488300        4.8968525781        6.2979820065
 C       -12.8835929291        4.9570549464        6.8454132148
 O       -11.8108696568        4.7931083928        6.2353146476
 C       -12.6735258074        5.2339385806        8.2774587191
 C       -11.4365919554        6.0593920194        8.4111618320
 C       -11.5306347685        7.3773682310        7.5746188389
 O       -12.4876955344        8.0518086378        7.5712533871
 C       -10.2120418909        7.9214696046        6.9598415807
 C       -10.0169442099        7.3237737349        5.5311120251
 O       -10.8539561312        7.3901439574        4.6959490530
 C        -8.5685704070        6.6317369609        5.2581716784
 C        -8.3265170523        6.4499044802        3.7646846415
 C        -9.1345731901        5.4046696818        3.0533219631
 O        -9.7571572312        4.5244538631        3.6524305137
 C        -8.8799693313        5.2874913050        1.4536760460
 C       -10.3697965279        5.2107225073        0.7884902563
 O       -11.3518405168        4.9816993994        1.5061685484
 C       -10.5131745905        5.3271167717       -0.7515034819
 C       -11.4367505983        4.1671699451       -1.1669450600
 C       -11.9238389267        4.1012551564       -2.6933932887
 O       -11.8246788781        4.9812177798       -3.5331075264
 C       -12.7738194431        2.8358617663       -3.1456057603
 C       -11.7218961869        1.8809900550       -3.5752802846
 O       -11.3114541404        1.0404467293       -2.7829529099
 C       -11.1483932058        2.0810560971       -5.0076481152
 C       -10.3586563357        0.9863761610       -5.5075835994
 C        -9.1780229850        1.4465510598       -6.5295348529
 O        -9.3394027238        1.4508123369       -7.6839725483
 C        -7.9501568954        2.0468686124       -5.7533020449
 C        -6.7051106347        1.1444475982       -5.9695256213
 O        -5.6402128077        1.5480466784       -5.5691015188
 C        -6.9656180121       -0.2053382643       -6.7885093224
 C        -5.7060981660       -1.2195404681       -6.7272582238
 C        -5.7052229275       -1.8380000469       -5.2216174980
 O        -6.3334485422       -1.2755331393       -4.3135837655
 C        -4.7230477626       -2.8809966129       -5.0993607355
 C        -3.2027890732       -2.4302867499       -5.4032465352
 O        -2.7117654944       -2.4070673613       -6.4859646131
 C        -2.3274508923       -2.1534080967       -4.1050911768
 C        -4.8899525451       -3.5260296404       -3.7986245608
 C        -5.0613172186       -4.0125984243       -6.1200825787
 C        -7.4929591125        3.3932021922       -6.3974494841
 C        -8.0912327260        2.1594424997       -4.1833306361
 C       -13.6756076013        2.3614797349       -1.8173551562
 C       -13.9135264832        3.0584748404       -4.2448578073
 C        -7.8950346241        6.4355552567        0.7937474086
 C        -8.1048932645        3.8980991115        1.1867921004
 C       -10.3204048039        9.4347572622        6.8085847462
 C        -8.9203475102        7.7227314906        7.8477774643
 C       -14.6725653532        6.1328089034        5.5067365173
 C       -15.4453437251        4.8855309343        7.3688305117
 H       -16.7056029128        3.0255247037        4.9612437017
 H       -15.5765751412        2.0957565482        6.0831482200
 H       -15.3970230462        2.0449783328        4.3106570632
 H       -12.4353972253        4.2928570627        8.9916425961
 H       -13.5071001748        5.6724924079        8.7045214870
 H       -10.6881404491        5.4207873046        8.0898973324
 H       -11.2604092450        6.3216922072        9.4299928659
 H        -8.4514641305        5.5884718756        5.6956003096
 H        -7.6330699765        7.2812738890        5.5701433397
 H        -7.3765656578        6.0884348259        3.7265222135
 H        -8.4978658660        7.4665096262        3.2359454867
 H        -9.6908960014        5.4733627405       -1.4269631676
 H       -11.2122674553        6.1936826249       -1.0557103899
 H       -12.3217839683        4.1257042317       -0.4199730892
 H       -10.9868264585        3.1870814620       -1.0121596097
 H       -10.6296107775        3.1526085713       -5.0593558850
 H       -12.1132127304        2.1750206423       -5.5870276072
 H       -11.0636915207        0.2771891196       -5.8843891882
 H        -9.8264090798        0.5010394373       -4.6721020659
 H        -7.3053370849        0.0575237347       -7.7979490031
 H        -7.8543165099       -0.7295090258       -6.3798675560
 H        -4.7138094731       -0.8512974021       -6.9639855581
 H        -5.7054700497       -2.0339176972       -7.5429719890
 H        -2.9389721891       -2.3027648838       -3.1435235728
 H        -2.1190795263       -1.1544537959       -3.8788549157
 H        -1.4617919906       -2.8367217590       -4.1120662842
 H        -4.6718610484       -3.0000811912       -2.8788453075
 H        -4.2578034959       -4.4382066818       -3.8414043353
 H        -5.8256132869       -4.0252361104       -3.6772831345
 H        -4.8426442257       -3.8018901003       -7.1059721413
 H        -6.2042056052       -4.0032953962       -6.2118233032
 H        -4.6115306904       -5.0137742761       -5.8678588743
 H        -7.1324028586        3.1503548907       -7.3925989945
 H        -6.7258462659        3.8216368596       -5.7936591909
 H        -8.4080220707        4.0274865045       -6.4249567085
 H        -8.7970983114        1.4606802215       -3.7596523249
 H        -8.4687377900        3.2074350867       -4.0924621229
 H        -7.1891118636        1.9612085088       -3.7031555126
 H       -14.4447656055        1.5393235201       -2.1191948543
 H       -14.1637684745        3.3081337576       -1.6119167015
 H       -13.0962391863        1.8764653421       -1.0147237336
 H       -13.4894854912        3.8690184605       -4.9244467004
 H       -14.6701334417        3.5832105293       -3.5619556460
 H       -14.3202176756        2.0472815188       -4.6300295399
 H        -7.6613968970        6.1734789281       -0.2530184855
 H        -6.8226010191        6.2125963896        1.2366727214
 H        -8.2915928967        7.3510133770        0.9645242353
 H        -7.1209422326        3.9780334999        1.5243173010
 H        -8.1404927901        3.6313772764        0.1308915320
 H        -8.4194849991        3.1872818686        1.9136482843
 H        -9.9738071050        9.9878182464        7.6749490050
 H       -11.1510421611        9.6889496313        6.1794089181
 H        -9.5379911000        9.7324233575        6.1584224077
 H        -8.9412722104        6.7831601514        8.3931459031
 H        -8.8622939481        8.6097162461        8.4367382729
 H        -7.8927478713        7.6738883927        7.2714942904
 H       -13.7898840854        6.7553204533        5.4814286441
 H       -15.2639846916        6.8047100394        6.0172402771
 H       -14.9599191974        6.1353660134        4.4667612175
 H       -16.4504468336        4.8391761770        6.9357878473
 H       -15.4683405943        5.8061442658        7.7875531699
 H       -15.4400359261        4.1280453216        8.1371788378
 Na      -12.1576790954        5.3524597107        3.7386013944
