117

 C       -15.6262281006        2.6605770505        5.2268566788
 C       -14.6504869846        3.8196147155        5.0671235264
 O       -13.9523305687        4.0128786379        4.1214214996
 C       -14.5197057602        5.0075459759        6.1843799401
 C       -12.9394121386        4.9984507966        6.8236912294
 O       -11.9692856681        4.9210552623        6.0231598317
 C       -12.7187560782        5.2716182509        8.3445487898
 C       -11.3875519155        6.1558545048        8.5119495492
 C       -11.4092003556        7.5230163013        7.6358808510
 O       -12.4829781875        8.1134180886        7.4916132855
 C       -10.0963334566        7.9621677137        6.9271291563
 C        -9.8716063612        7.2964924292        5.4759583775
 O       -10.7598293017        7.4274965182        4.6216779475
 C        -8.6596544147        6.5102663945        5.1357828908
 C        -8.2547880404        6.4037020217        3.6970071419
 C        -9.0249868186        5.3873222465        3.0157597912
 O        -9.7943126567        4.5850701884        3.6472694582
 C        -8.9576711116        5.2235391924        1.4783176830
 C       -10.2926987247        5.1540066630        0.7127159077
 O       -11.2692163826        4.8957162629        1.3820444291
 C       -10.4997249621        5.3223638864       -0.7769293729
 C       -11.4467227254        4.1471754494       -1.2629772735
 C       -12.0333662869        4.1790771818       -2.6494537089
 O       -11.6691047359        5.0425551109       -3.4100534907
 C       -12.9942069955        3.0161477222       -3.0665071130
 C       -11.9402277499        1.8587670851       -3.5106486111
 O       -11.2774965855        1.2103127496       -2.7850035482
 C       -11.4033948962        2.0076964418       -5.0759948072
 C       -10.4838705980        0.9554658247       -5.5543145722
 C        -9.2854255829        1.4960699619       -6.4031079377
 O        -9.2613327437        1.2493764263       -7.6108954322
 C        -8.0135540053        1.9827252936       -5.7161450365
 C        -6.7789817682        0.9243018584       -6.0159269587
 O        -5.6964152484        1.2342187617       -5.6799039903
 C        -6.9824207808       -0.2856739691       -6.8716047357
 C        -5.7258336246       -1.1647083677       -6.7738802295
 C        -5.5325236861       -1.7900113192       -5.2821676772
 O        -6.3291279917       -1.3542564076       -4.4921619652
 C        -4.5637195191       -3.0345208619       -5.0114021639
 C        -3.1840523710       -2.5181912934       -5.1764416564
 O        -2.7922638486       -2.3550364455       -6.3508637523
 C        -2.2744316761       -2.0870015452       -4.0447931409
 C        -4.8145654010       -3.6454088730       -3.5462145391
 C        -4.8777064589       -4.1053214236       -6.1724442527
 C        -7.6445423342        3.2854592355       -6.4201944127
 C        -7.9633785588        2.2700806411       -4.1234897982
 C       -13.7333054879        2.4871811797       -1.8218846015
 C       -13.9618035329        3.2690357889       -4.2217728549
 C        -8.0366092542        6.2455881867        0.8571083868
 C        -8.1861366453        3.7842198024        1.3233313360
 C       -10.3386616265        9.5109447257        6.8785780553
 C        -8.9055996677        7.6406275720        8.0190821300
 C       -14.7142346358        6.3605586727        5.3695238286
 C       -15.4042500673        4.8454068447        7.4029545512
 H       -16.6139552935        2.9144484802        4.7050590109
 H       -15.7685083548        2.4882702827        6.3230698086
 H       -15.2576348190        1.7560207783        4.7922412260
 H       -12.5477442971        4.4808172418        9.1100189203
 H       -13.6532389373        5.8361626934        8.7358131653
 H       -10.5992856373        5.4169187985        8.2878533824
 H       -11.3124965631        6.4859830106        9.5141991988
 H        -8.8549639877        5.5270718380        5.4907393670
 H        -7.7819548924        6.9385247466        5.6348655998
 H        -7.1677057870        6.0785720448        3.7412811639
 H        -8.4742874939        7.3570999887        3.2030227905
 H        -9.5340942261        5.2275258115       -1.4464163465
 H       -10.8574582259        6.3052629944       -1.0953481990
 H       -12.2292012426        4.0672616556       -0.5700076224
 H       -10.9465228278        3.1644275822       -1.1705912814
 H       -10.7796124297        2.9320232543       -5.0080439957
 H       -12.2715666810        2.2404967264       -5.7037446513
 H       -11.0227303461        0.1660198883       -6.1628186560
 H       -10.0711686668        0.4763874907       -4.6924155037
 H        -7.0468967582       -0.0044298048       -7.9252168115
 H        -7.9292186265       -0.9016685055       -6.7389318896
 H        -4.8209767905       -0.6849763070       -7.1249921382
 H        -5.8186051200       -1.8827242483       -7.5671634079
 H        -2.6838103113       -2.0079149788       -2.9938192960
 H        -2.1100078381       -1.0029700212       -4.2096853401
 H        -1.3630713443       -2.6425131640       -4.0601476541
 H        -4.8323793318       -2.9188481109       -2.7713424926
 H        -4.0691637741       -4.4716070607       -3.2660146269
 H        -5.7430993865       -4.2134903554       -3.4109645279
 H        -4.3326080521       -3.8375959729       -7.1312966449
 H        -5.8222861430       -4.0098378303       -6.5544978471
 H        -4.6023345405       -5.1110674764       -5.8805526522
 H        -7.6508653484        2.9843462666       -7.4714816487
 H        -6.5578550188        3.6017587575       -6.0837396241
 H        -8.4287092491        4.0401310877       -6.2854994270
 H        -8.2231298248        1.3643058400       -3.5980229316
 H        -8.6398350045        3.1240746773       -3.9205325495
 H        -6.8540901382        2.4748213556       -3.8555196175
 H       -14.4811204369        1.8703445695       -2.1544054949
 H       -14.1559419551        3.4198067093       -1.2485893663
 H       -13.0548122337        1.7893801415       -1.2869518936
 H       -13.3448902767        3.9839134293       -4.7720983180
 H       -14.8945373268        3.7473571795       -3.8909674716
 H       -14.1521642111        2.2401101154       -4.6792726451
 H        -8.1112291750        6.2770965788       -0.2353249683
 H        -7.0578543852        5.7945982702        0.9545702794
 H        -8.1596858786        7.2358257168        1.3571444805
 H        -7.1896201304        3.7805690848        1.7366827436
 H        -8.0873069947        3.5194976450        0.2200501122
 H        -8.5656248648        3.0242350792        2.0554310252
 H       -10.3041275268        9.8016898743        7.8765693644
 H       -11.2559959603        9.6112730225        6.3966148646
 H        -9.7315660157       10.2827960754        6.4046940084
 H        -9.0717394122        6.7564481470        8.6303769054
 H        -8.8378658036        8.5522749365        8.5760464933
 H        -7.9678113630        7.5126558811        7.6522456110
 H       -13.8897801832        6.8395884960        4.8573473814
 H       -14.9277021923        7.0975337326        6.1194065326
 H       -15.4984807431        6.3659178090        4.5813000140
 H       -16.4323550949        4.9649437409        7.3972712210
 H       -15.1279455660        5.6084881890        8.1465918727
 H       -15.1198398396        3.9002981017        7.8417227963
 Na      -11.9161935998        5.3834927621        3.5875832564
