117

 C       -15.4390327370        2.8373021980        5.2887446514
 C       -14.5625332344        3.9798937416        5.1114160163
 O       -13.8957954458        4.0357894329        4.1683286977
 C       -14.4704455974        5.1113151486        6.2999124538
 C       -13.0762106005        5.2619856210        6.6776498097
 O       -12.2307543225        5.0371861501        5.8470246688
 C       -12.7789632749        5.4357909092        8.1144087469
 C       -11.3716268459        6.1641428025        8.4933968588
 C       -11.4032159643        7.3904179850        7.6445171604
 O       -12.4256600942        8.0367310942        7.4237029940
 C       -10.1010068014        8.0423052811        7.0635291986
 C        -9.8320008419        7.3391142725        5.5697307766
 O       -10.7219935823        7.4825168700        4.7036676923
 C        -8.5806062570        6.3954908469        5.3123444237
 C        -8.2073193469        6.4596062263        3.7139123402
 C        -9.0560242618        5.3472284188        2.9461556711
 O        -9.7561651089        4.6195511602        3.5897390684
 C        -8.8105787754        5.0774289837        1.3962595980
 C       -10.3358818461        4.9782732299        0.7134481289
 O       -11.3783687363        4.8878102367        1.3022960678
 C       -10.4325703721        5.1083681594       -0.7501860271
 C       -11.4317290625        4.0509562128       -1.2539632763
 C       -12.0579661395        4.3198848538       -2.6357820656
 O       -11.6178132414        5.1135010420       -3.4250868057
 C       -13.0324222873        3.0811858812       -3.0717067620
 C       -11.9043909553        2.0760092148       -3.5606116640
 O       -11.3568023386        1.3257180207       -2.7562539224
 C       -11.6298502669        2.0706650974       -5.0676508517
 C       -10.6471076535        0.8038358744       -5.4508412732
 C        -9.3175962022        1.2308523647       -6.1833058596
 O        -9.2627874764        1.1659120087       -7.4593502438
 C        -7.9759846587        1.8851649492       -5.7622267241
 C        -6.7928559370        0.8344062770       -6.1275889188
 O        -5.6575902484        1.0753981660       -5.6240916014
 C        -6.9317407897       -0.4187925083       -7.0067489737
 C        -5.7179925531       -1.3052694340       -6.7928065599
 C        -5.6303857608       -1.8733785318       -5.4108542455
 O        -6.2705661666       -1.4742819842       -4.4552903849
 C        -4.5580480183       -3.1251394095       -5.0289220078
 C        -3.0962095088       -2.4857322541       -5.1217561771
 O        -2.7379012295       -2.2723539097       -6.2644801433
 C        -2.2042317661       -1.9819279236       -3.9658263779
 C        -4.8581456848       -3.6721678257       -3.5377037538
 C        -4.7299174099       -4.2207789239       -6.0266169994
 C        -7.6810890016        3.3043492148       -6.4973825758
 C        -7.9656323975        2.2920063654       -4.2252786956
 C       -13.8253733039        2.4704238351       -1.7822541935
 C       -13.9976502721        3.6358247432       -4.1971004503
 C        -8.0048467845        6.2402146340        0.7492714446
 C        -8.3621152814        3.6045882520        1.3265281010
 C       -10.2024756166        9.5706979278        6.8046028990
 C        -8.9062306486        7.7041856692        7.9860709123
 C       -14.7161499078        6.4715290506        5.4603091431
 C       -15.5607639495        4.7624014899        7.3366159925
 H       -16.1970192905        2.9981779554        4.5686903838
 H       -15.8860016668        2.7523150692        6.3329157668
 H       -14.9650181614        1.9076854021        5.0625667337
 H       -12.6633042433        4.4940205587        8.5559199434
 H       -13.6278027882        5.8697117660        8.7544115993
 H       -10.5057404217        5.4120717775        8.3649693225
 H       -11.4192609498        6.6116396172        9.5294677545
 H        -8.9577759794        5.4427340842        5.5940684154
 H        -7.7713595667        6.6983992352        5.8168869909
 H        -7.0813336033        6.1672764368        3.5330395418
 H        -8.4763783226        7.4266179427        3.4653385295
 H        -9.4977817391        4.8619721287       -1.2790523590
 H       -10.6397465048        6.1119403619       -1.0862650460
 H       -12.2328197515        4.1072570637       -0.5810436713
 H       -11.0872738730        3.0020783716       -1.1524987659
 H       -11.2713686941        2.9769134806       -5.3655654032
 H       -12.6463949451        1.9494220384       -5.3846198498
 H       -11.1363595374        0.2392368181       -6.2887092075
 H       -10.5666395344        0.1188467832       -4.5958132847
 H        -7.0759161415       -0.2764114248       -8.0953828308
 H        -7.8267562247       -0.9755302223       -6.7075461700
 H        -4.7464883760       -0.7551329025       -6.8457315032
 H        -5.5803181966       -1.9487966430       -7.5944499006
 H        -2.5848037428       -1.9237339986       -3.0072401411
 H        -1.9593661605       -0.8898723439       -4.2275031576
 H        -1.3006206383       -2.6025207270       -3.9318200865
 H        -5.1308220400       -2.7396813547       -2.9819726617
 H        -4.1007795787       -4.2020272396       -3.0178853117
 H        -5.7429785510       -4.3079711482       -3.3192533552
 H        -4.0275915638       -3.9458603851       -6.8644668272
 H        -5.5834196040       -4.2670350887       -6.6371609262
 H        -4.3846299759       -5.1093939882       -5.6156173655
 H        -8.0841290803        3.1406368115       -7.5610691247
 H        -6.5956559739        3.4314611605       -6.4810754713
 H        -8.2706873343        4.1287685481       -6.0633296310
 H        -7.7719331208        1.3346847257       -3.6661093883
 H        -8.8947502619        2.7739981291       -3.9561851433
 H        -7.0257673509        2.9016817582       -4.0490347647
 H       -14.6093300305        1.8459196225       -2.1880085966
 H       -14.2358375977        3.3337263476       -1.2529488115
 H       -13.1467009925        1.7887629202       -1.2317259143
 H       -13.3662934190        4.2424683636       -4.7907529185
 H       -14.7710849192        4.2572854171       -3.8328669676
 H       -14.3799795519        2.7553287703       -4.5704422608
 H        -8.2136352417        6.2707418009       -0.3090424298
 H        -6.9887874068        6.1919745808        0.8252077347
 H        -8.5262401498        7.1131483369        1.2946857545
 H        -7.4648401194        3.2511460452        2.0163658155
 H        -8.0691925348        3.3842908428        0.2765217981
 H        -9.1176667604        2.9780076695        1.8447700372
 H       -10.5057803235       10.0413597079        7.7363005026
 H       -10.9287998929        9.6987861669        6.0007541821
 H        -9.3892509559       10.2132651087        6.5172947582
 H        -8.8838582041        6.6753465905        8.2075671563
 H        -8.9020963081        8.3335972311        8.8625131183
 H        -7.9475539845        7.9484513463        7.5843068613
 H       -14.3376984431        6.6516352905        4.4328127424
 H       -14.3233193894        7.3952551358        6.0460682878
 H       -15.8060650535        6.5588269952        5.3368838360
 H       -16.5614305656        4.6593820295        6.8987919584
 H       -15.7327230962        5.5471037729        8.1469186323
 H       -15.2252304446        3.8738264620        7.8585462308
 Na      -11.7515167845        5.3804196985        3.5627066189
