117

 C       -15.4083502590        2.7370496514        5.3293283015
 C       -14.5492143311        4.1033875064        5.0521631803
 O       -13.6870753475        4.1900995997        4.1064105841
 C       -14.6881592510        5.1955905061        6.1430752820
 C       -13.0723748399        5.2497039488        6.5928831757
 O       -12.1132411796        5.3311102204        5.8501814636
 C       -12.8193239232        5.4549175061        8.1274522238
 C       -11.4057498544        6.1184024745        8.3483219590
 C       -11.4561227748        7.4219759745        7.6062030750
 O       -12.4348194989        7.9975944007        7.3016048971
 C        -9.9243016062        8.0256897474        7.0028744775
 C        -9.8132325108        7.2638307471        5.6644300426
 O       -10.6601862452        7.4998247034        4.8492708095
 C        -8.6173474575        6.4345414314        5.3669363736
 C        -8.2690012609        6.4759144646        3.7841920523
 C        -9.0056814774        5.2755800695        2.9862855570
 O        -9.6841540923        4.5064940860        3.5785446753
 C        -8.9408743412        5.1094255966        1.4267499819
 C       -10.3142473286        5.0457895987        0.7730384416
 O       -11.3597356331        4.9377890228        1.4299077990
 C       -10.2731586609        4.8233374950       -0.8278147749
 C       -11.4442499205        3.9691097325       -1.2094812088
 C       -11.9950703202        4.2688096483       -2.6052102465
 O       -11.6855705647        5.1630037232       -3.3827334976
 C       -12.9863886198        3.2059059499       -3.1559316562
 C       -12.0350118463        2.1189532299       -3.7006780278
 O       -11.4716873856        1.5360976257       -2.7430033276
 C       -11.7259395950        1.9650108409       -5.1376611309
 C       -10.5552966506        0.8845187749       -5.3679711552
 C        -9.4581159288        1.2661540825       -6.2623623501
 O        -9.5421502808        0.8898123195       -7.4073776481
 C        -7.9721806953        1.7813068310       -5.7607447147
 C        -6.7220501477        0.8000732022       -6.0510660039
 O        -5.6174020388        1.0719099210       -5.5583074676
 C        -6.8792368914       -0.4778716000       -6.9591503922
 C        -5.6274428767       -1.5728071923       -6.7544744651
 C        -5.6209595145       -2.0367767657       -5.3136014578
 O        -6.3250022041       -1.5703113631       -4.4448692495
 C        -4.5149208721       -3.0694878061       -5.0208355596
 C        -3.0585359347       -2.2838735175       -5.1572429438
 O        -2.6302032319       -2.2114532875       -6.2564504497
 C        -2.3254102129       -1.9563371886       -3.9062331770
 C        -4.8655785444       -3.5758959322       -3.6537431164
 C        -4.5340921208       -4.3856246777       -5.8876430106
 C        -7.7720226897        3.0745676765       -6.5719028864
 C        -7.9442227029        2.1715596733       -4.1840418889
 C       -13.8452793704        2.5679236827       -1.9895303500
 C       -13.9737473363        3.9570008890       -4.0761611657
 C        -8.0147105145        6.0431831879        0.6614020066
 C        -8.4623909751        3.5725523848        1.2302454606
 C       -10.0501805328        9.4881424586        6.6929984744
 C        -8.7576970493        7.8612784129        7.9683164631
 C       -14.9351560435        6.6379315896        5.6479329858
 C       -15.7129978880        4.9389866076        7.2465038325
 H       -16.1452817289        2.7803526559        4.5674457775
 H       -15.8276745197        2.5745307432        6.2415993910
 H       -14.8160718060        1.8240385979        5.0603152494
 H       -12.8651313420        4.6007060726        8.7843327327
 H       -13.4695136364        6.0733306507        8.5841975344
 H       -10.5937972309        5.5827184882        7.8222614503
 H       -11.1835683374        6.3158497733        9.4770748667
 H        -8.8704371423        5.4150366946        5.6831241084
 H        -7.7029281365        6.8853271383        5.8149684884
 H        -7.2573365026        6.2209520202        3.7187432602
 H        -8.5204322206        7.5147404426        3.4790077027
 H        -9.4906789197        4.3695061031       -1.2579423826
 H       -10.2965667406        5.8392236456       -1.3010371426
 H       -12.2420754739        4.2648753082       -0.4227744813
 H       -11.2854706838        2.8966925110       -1.0817311868
 H       -11.3810924333        2.9471317540       -5.3763302277
 H       -12.6646778615        1.7523540695       -5.5542962713
 H       -10.9441103331        0.0341880692       -5.8909661733
 H       -10.1907811856        0.4629923516       -4.3738033749
 H        -6.9648667065       -0.1678959651       -8.0158130634
 H        -7.8267781111       -0.9097708144       -6.7816705361
 H        -4.6294661498       -1.1829885413       -6.9758716668
 H        -5.6635362630       -2.4259694069       -7.4954607970
 H        -2.9509258703       -2.1111987085       -3.0108319464
 H        -1.8770878960       -0.9825722823       -3.8732455806
 H        -1.5721953795       -2.7644738280       -3.7913633130
 H        -5.3162262392       -2.7591597569       -3.0264639231
 H        -4.1333947570       -4.1144200969       -3.1313491481
 H        -5.7278649490       -4.2443252406       -3.6510636740
 H        -4.1119499182       -4.1949254439       -6.7907158214
 H        -5.5511879716       -4.6887502576       -6.3125366147
 H        -3.9504125419       -5.1409964349       -5.3780272885
 H        -8.3686698107        2.8974872677       -7.4835327333
 H        -6.7744020873        3.1978488853       -6.7728236255
 H        -8.2506758017        3.9556643831       -6.0951858408
 H        -7.5253749781        1.2521104854       -3.7204762172
 H        -8.9553484850        2.4127433840       -3.7973364539
 H        -7.2522535548        2.9223239643       -4.0198661975
 H       -14.5076601411        1.8749699708       -2.6504510808
 H       -14.3891205817        3.2614957480       -1.4620744718
 H       -13.2039064196        1.9177885712       -1.3715402965
 H       -13.5193757964        4.5153309254       -4.8228475089
 H       -14.5440317552        4.6815185905       -3.5577726954
 H       -14.6164208546        3.1760094835       -4.2757673710
 H        -7.9426820799        5.6369654672       -0.3296627898
 H        -6.9507975449        6.0948771477        1.0929597254
 H        -8.4621040020        6.9489586215        0.6764658933
 H        -7.6315749518        3.3608468585        1.9460610497
 H        -7.9977483415        3.5589652033        0.2452299472
 H        -9.1591230437        2.8104008079        1.5555786763
 H       -10.5465628536       10.0313344574        7.5915079137
 H       -10.5415005832        9.6837907160        5.6855984106
 H        -9.1569422462       10.0800055261        6.6092332997
 H        -8.3323034515        6.8886410392        7.8291927057
 H        -9.0639615523        7.9216918983        8.9866783099
 H        -7.8856884197        8.6502144121        8.0043968743
 H       -15.0005349458        6.7749938602        4.5187174754
 H       -14.1196731589        7.3721585121        5.9074308127
 H       -15.9459803946        7.0576265673        5.9148343151
 H       -16.7555922799        4.6395561307        6.8555526828
 H       -15.9112998632        5.8661251958        7.7603629937
 H       -15.3385682251        4.2302894549        8.0383482903
 Na      -11.7473046971        5.3945513675        3.6243432070
