117

 C       -15.1017591421        2.9698962087        5.1993028394
 C       -14.4954549671        4.4201759438        4.9063577075
 O       -13.9276033127        4.7451923288        3.9612358267
 C       -14.6753252223        5.4334173719        5.9824642776
 C       -13.1504519195        5.5578239522        6.7030858471
 O       -12.2762506004        5.7806780932        5.9116603840
 C       -12.8661775030        5.8522543469        8.1723799374
 C       -11.3950259957        6.3881912585        8.3793002055
 C       -11.3203068625        7.5805834736        7.5110234449
 O       -12.3156478009        8.2427429191        7.2340889690
 C        -9.7678166139        8.0199500660        6.9456504193
 C        -9.6893463639        7.2170383529        5.5476656544
 O       -10.5717381929        7.2714502417        4.6670487860
 C        -8.3619905623        6.4356716382        5.1910102728
 C        -8.2212186013        6.3072212903        3.6058169908
 C        -8.9118359018        4.9846936793        3.0794499505
 O        -9.5866618800        4.3039124413        3.7815882282
 C        -8.7605602237        4.6339686755        1.6124266534
 C       -10.1708520319        4.8938833526        0.9074601544
 O       -11.0035589349        5.5430051122        1.4813153610
 C       -10.4220947604        4.6426499176       -0.5487868353
 C       -11.7889119238        3.9090852699       -1.0420731358
 C       -12.1669199928        4.3759532061       -2.4750739770
 O       -11.6856529732        5.4262864937       -2.8617823672
 C       -13.0380539676        3.5441437191       -3.3950531255
 C       -12.1753752230        2.2216792277       -3.7456396684
 O       -11.9133976361        1.4999833330       -2.7421260599
 C       -11.6633107503        1.9734423606       -5.1116730860
 C       -10.7806407997        0.5676644917       -5.1230124071
 C        -9.5340378140        0.7045737554       -6.0772167536
 O        -9.6976936367        0.3623480975       -7.2655081328
 C        -8.1521241419        1.5069279122       -5.7535001473
 C        -6.8481410339        0.4554385652       -6.0246946038
 O        -5.6517026565        0.7656812620       -5.7035564371
 C        -6.7979160130       -0.8007088257       -7.0101246551
 C        -5.6840656227       -1.8475430866       -6.7077272298
 C        -5.6070733812       -2.2455107763       -5.2678067837
 O        -6.5473145361       -2.0491040620       -4.5368212709
 C        -4.4556963310       -3.2007428770       -4.7939656134
 C        -3.1257473765       -2.1138077817       -4.9043537514
 O        -2.6401011500       -1.8781211765       -5.9600664480
 C        -2.4177247295       -1.6311414539       -3.7197062210
 C        -4.6130770531       -3.7834685640       -3.4499690303
 C        -4.2325948202       -4.3215318645       -5.8933549394
 C        -7.9446430116        2.6085601098       -6.9156895388
 C        -8.0472984546        1.9999000362       -4.3505231016
 C       -14.3021687217        2.9998827405       -2.5427510354
 C       -13.6438091124        4.3121143871       -4.6538782707
 C        -7.8110944336        5.7487812053        0.8519499911
 C        -8.1232457537        3.2781055563        1.4797853162
 C        -9.9363030364        9.4842813215        6.6270461854
 C        -8.6838218255        7.7075151266        8.0174043990
 C       -15.0499573970        6.6368033352        5.1990718767
 C       -15.7182346258        5.0813347251        7.1488103440
 H       -16.1793790790        3.1241207704        5.2312551681
 H       -14.9005617241        2.5116458219        6.1626431764
 H       -14.9614803780        2.3139276952        4.2519014276
 H       -13.1568116926        5.0220702743        8.8795132922
 H       -13.5341263729        6.6277906149        8.5404288231
 H       -10.5359990221        5.7311546557        8.1369813026
 H       -11.1067425122        6.9082167923        9.3365376775
 H        -8.2400549711        5.4619067109        5.5780396738
 H        -7.6428844644        7.1207510124        5.4172278765
 H        -7.1150984114        6.2733634162        3.2788955695
 H        -8.7861841216        7.1019659025        3.1496679427
 H        -9.6680525549        4.0665641105       -0.9524196437
 H       -10.3885384998        5.6393249692       -1.0934908753
 H       -12.5203452806        4.2945317981       -0.3862917918
 H       -11.8129618166        2.8314766050       -1.0776408726
 H       -11.2019865699        2.8774049767       -5.4700792034
 H       -12.5289345726        1.6434485655       -5.7356056636
 H       -11.3814759600       -0.3334062474       -5.2166254992
 H       -10.3578337686        0.4401575359       -4.0868517945
 H        -6.7190930198       -0.3240212737       -8.0338772190
 H        -7.7868487647       -1.2897580273       -7.0614195343
 H        -4.7157574123       -1.3386760768       -6.9370206541
 H        -5.7041324987       -2.6481949225       -7.3679657876
 H        -2.7381412312       -0.6441936481       -3.4749098921
 H        -1.3161978262       -1.7692364171       -3.8488618673
 H        -2.7430006936       -2.1143785670       -2.7604133456
 H        -4.7714125725       -2.9609326979       -2.6739361098
 H        -3.7553106395       -4.3435305832       -3.2540422327
 H        -5.5415938296       -4.3754899860       -3.2867990729
 H        -4.4597841637       -4.1376435763       -6.9148079772
 H        -4.7855867178       -5.2988674341       -5.6147372082
 H        -3.2031547431       -4.5818220514       -5.7551942810
 H        -7.5758473062        2.3010049609       -7.9647295766
 H        -7.4050198273        3.3614219450       -6.4137836201
 H        -8.9867176417        3.0329004419       -7.1131029685
 H        -8.8287336960        1.4980739212       -3.6617910678
 H        -8.1938639904        3.0864419754       -4.3083861433
 H        -7.0051547212        1.8849872569       -4.0369538647
 H       -15.1318440179        2.5631424415       -3.2078693304
 H       -14.5926779783        3.8657597193       -2.1000942514
 H       -13.8620487884        2.4522799959       -1.7114361579
 H       -12.8548105930        4.7433942413       -5.3493909530
 H       -14.0826914147        5.2775705119       -4.2422350812
 H       -14.4649921913        3.6930232706       -5.0048981809
 H        -7.8202327874        5.4216116976       -0.2204537888
 H        -6.8419765003        5.7335726584        1.4215994231
 H        -8.1610848867        6.7526944481        0.8948425416
 H        -6.9945625376        3.3160694435        1.7549757362
 H        -8.0364021301        2.8618636864        0.4399908108
 H        -8.6450073379        2.4967424472        2.1107530778
 H        -9.9975123217       10.1487547130        7.5106428122
 H       -10.9416437836        9.6588267949        6.1944646682
 H        -9.2474157603        9.9192670274        5.9627026505
 H        -8.2567489762        6.8130715860        7.7653790079
 H        -8.9634972011        7.5465307261        9.0146229098
 H        -7.9077413160        8.5348934766        8.0550961049
 H       -15.2520405978        6.4205193589        4.1072313023
 H       -14.3665395321        7.5271239089        5.1642565927
 H       -15.9395771237        7.0598920765        5.6262609514
 H       -16.7111014214        5.3297159100        6.7406375237
 H       -15.5416089904        5.5353621163        8.0995021860
 H       -15.6971129979        4.0563659592        7.3530061220
 Na      -11.7800925218        5.6621422056        3.6650489187
