117

 C       -15.0604620050        3.0815681694        4.9347149967
 C       -14.4319877734        4.5166438017        4.8241957143
 O       -13.8710818153        5.0019647407        3.8695655694
 C       -14.5462128792        5.5356825940        5.9842570163
 C       -13.1266436798        5.7914580231        6.5935623250
 O       -12.0348938261        5.4715213681        5.9920135773
 C       -13.1085430103        6.3661952183        7.9158593378
 C       -11.6497144935        6.7611335658        8.1757581590
 C       -11.2967454996        7.9878539761        7.3395834069
 O       -12.0308410968        8.9148400898        7.1182080496
 C        -9.7712263783        8.0497325665        6.7908590301
 C        -9.5441652422        7.2883440499        5.4308996089
 O       -10.3896557736        7.5612276209        4.5593000638
 C        -8.3432344505        6.3600242032        5.1590909663
 C        -8.0364518617        6.1180061716        3.7135166991
 C        -8.9470590820        5.0521668881        3.0386722169
 O        -9.7861630281        4.5112018068        3.7168911699
 C        -8.8278600881        4.6489674755        1.5354341496
 C       -10.1937303402        4.8806665664        0.7539215437
 O       -11.0532721185        5.4196896668        1.4414379061
 C       -10.3947014144        4.2042182218       -0.6316560677
 C       -11.8998493116        4.0016410637       -0.9162047560
 C       -12.0733876808        4.6425096166       -2.3707315744
 O       -11.7182614234        5.7963545431       -2.5869539539
 C       -12.7324763196        3.6772948363       -3.5583417962
 C       -12.1907729412        2.1566490586       -3.6042863495
 O       -12.4684940810        1.3710349147       -2.6693153435
 C       -11.2190376204        1.9205235855       -4.7534809189
 C       -10.6150156862        0.4489879091       -4.8446519670
 C        -9.6516941089        0.2673513693       -5.9530243765
 O       -10.0076283534       -0.4054713767       -6.8830196096
 C        -8.3070492113        1.0884025379       -5.9477754254
 C        -7.0491871884        0.2097456616       -6.0121181491
 O        -6.0379049544        0.5527148543       -5.4359482840
 C        -7.1965275764       -1.2425520434       -6.6850233603
 C        -5.9349702756       -2.1078218598       -6.5613461670
 C        -5.7086931164       -2.5683314904       -5.1563794861
 O        -6.6652996722       -2.6465378548       -4.4100532770
 C        -4.2630428669       -3.1160557446       -4.8069368084
 C        -3.2337210315       -1.9017651931       -4.8374681042
 O        -2.8276337839       -1.5112812328       -5.8810792313
 C        -2.8594696669       -1.2608227348       -3.4172394860
 C        -4.4514793391       -3.8172253595       -3.3562571760
 C        -3.8008138835       -4.3014448984       -5.7770290592
 C        -8.2063051533        2.1169439287       -7.1238405215
 C        -8.0714973592        2.0274148538       -4.6095049011
 C       -14.1999411548        3.4972614604       -3.1732602682
 C       -12.5849544400        4.5768308812       -4.8280330819
 C        -7.5279535066        5.1496800827        0.8231935697
 C        -8.7021906292        3.1014533201        1.6866457256
 C        -9.3775012297        9.5323992803        6.6309793236
 C        -8.8763063008        7.4056711124        7.9466365252
 C       -14.8516432461        6.9669502217        5.2419610865
 C       -15.8413429527        5.2673557777        6.9960284800
 H       -15.5468587326        2.6709527197        5.8604426825
 H       -14.3919219598        2.3699335668        4.4631231689
 H       -15.9782503948        3.2995993190        4.2449403642
 H       -13.3422447878        5.5043787600        8.7392927934
 H       -13.7991124942        7.1456831989        8.1272684499
 H       -11.0038252102        5.9921609184        7.8925422705
 H       -11.5052024636        7.0286090489        9.2314881971
 H        -8.6690123125        5.4103993988        5.5786297121
 H        -7.4166407448        6.7482487787        5.5875843972
 H        -7.0569739592        5.5477636541        3.6952176958
 H        -7.8640618279        7.0497622606        3.0956555570
 H       -10.0400437764        3.2534617676       -0.5452630432
 H        -9.9353633571        4.7972691951       -1.5237743737
 H       -12.5213534651        4.6725843296       -0.3418934691
 H       -12.1895326384        2.9711122260       -0.8225170170
 H       -10.3395204212        2.6374766388       -4.6990321404
 H       -11.6762067261        2.2692765195       -5.7462920012
 H       -11.2815209054       -0.3584957236       -4.9905305054
 H       -10.1689971322        0.2292360677       -3.8378880046
 H        -7.5303613259       -1.2207932926       -7.7596203073
 H        -8.0292503947       -1.6620314479       -6.1011765005
 H        -5.1317626045       -1.3800718745       -6.8727655855
 H        -6.0375185338       -2.8659361901       -7.3053315954
 H        -1.9002533575       -0.6783427633       -3.2359899578
 H        -3.1793066544       -1.9670476078       -2.7039948912
 H        -3.5549417284       -0.3555607180       -3.3661578933
 H        -4.8263434952       -3.0829715638       -2.5977184480
 H        -3.5984340241       -4.2012313394       -2.9188603500
 H        -5.1857029247       -4.6021079710       -3.5180282504
 H        -3.0183323559       -3.8903253864       -6.3279347940
 H        -4.7329659132       -4.6408321452       -6.4148415075
 H        -3.4965720921       -5.2902102817       -5.4288085980
 H        -8.9671545098        1.9743030870       -7.8727467356
 H        -7.2991596657        2.0741125279       -7.6709667048
 H        -8.2162471575        3.1007900796       -6.6501931789
 H        -8.2946481047        1.4344433731       -3.6961875887
 H        -8.7365683289        2.8798649132       -4.4588259771
 H        -7.0952617841        2.3834950947       -4.6137883785
 H       -14.5575724577        2.7421587512       -3.9681543321
 H       -14.7133721464        4.4074497451       -3.1189344892
 H       -14.1570601524        3.0910498713       -2.1541718925
 H       -11.6251830040        4.3383909614       -5.3867459245
 H       -12.9230831474        5.6407325201       -4.5601288204
 H       -13.3347896915        4.1186626133       -5.5676320905
 H        -7.3896332356        4.6857632378       -0.2111720343
 H        -6.7010452388        4.8455457713        1.6293452062
 H        -7.4147875416        6.1890301045        0.6736810205
 H        -7.9843819904        2.9113561847        2.4183202585
 H        -8.4159381053        2.5657970177        0.7769814346
 H        -9.6028372985        2.5227429578        1.7947980217
 H        -9.8445127447       10.0758722408        7.4676287141
 H        -9.9111074133       10.1791344900        5.9310060402
 H        -8.3425211348        9.5447512204        6.4906216187
 H        -9.0259494004        6.3579327816        8.1113267984
 H        -9.0127077278        7.7567672174        8.9363674255
 H        -7.7734260026        7.5298305332        7.5810497638
 H       -15.8678256793        7.2248322668        5.5394787232
 H       -14.8933873729        7.1039744478        4.1909605384
 H       -14.1150833702        7.6317540770        5.5991392962
 H       -16.6923709868        5.3490033171        6.3062074444
 H       -15.8046303169        5.9621013980        7.7411942868
 H       -15.9569948513        4.2526257681        7.3664748375
 Na      -11.6560888726        5.8198190400        3.6470563033
