117

 C       -15.1579362304        3.2891128470        4.6376089937
 C       -14.3760065416        4.5781575917        4.5608882478
 O       -13.7002331383        4.8245984070        3.5599247533
 C       -14.6374943489        5.7775592389        5.7795019392
 C       -13.1611544848        5.8118530295        6.5112691182
 O       -12.2493197336        5.2323622399        6.0981829872
 C       -13.0992782917        6.6711966559        7.9540356084
 C       -11.6029474581        7.1002312789        8.3398904675
 C       -11.0628771121        8.1951855350        7.3516022914
 O       -11.7596337424        8.9896829122        6.7238382082
 C        -9.4892403923        8.1317108707        6.9196249609
 C        -9.5363091313        7.3302049748        5.5387069158
 O       -10.3643210567        7.5437523928        4.6681039274
 C        -8.4319651611        6.3218594163        5.1226507285
 C        -8.1404526454        6.1875371154        3.5868931899
 C        -9.0288307867        5.0011349941        3.0902787263
 O        -9.9876653869        4.6059056155        3.7687704544
 C        -8.9401220441        4.3340507630        1.7306742749
 C       -10.3202932788        4.7458985961        0.8719500236
 O       -11.2743675852        5.2765299071        1.3377280069
 C       -10.2267403733        4.1717863659       -0.6254634753
 C       -11.6773108537        3.8930396693       -1.1025157163
 C       -11.9443209342        4.6433789299       -2.4558116013
 O       -11.5788251114        5.7980036439       -2.5443406609
 C       -12.6927733491        3.8863928541       -3.6107583516
 C       -12.3038910720        2.3004743343       -3.6807582358
 O       -12.5145696157        1.6929836975       -2.6504510501
 C       -11.5036012317        1.7658046078       -4.8669654458
 C       -10.5508467214        0.6498471474       -4.3962385778
 C        -9.5886510178        0.3267643914       -5.5468699431
 O       -10.1327872116       -0.3246181395       -6.4599596838
 C        -8.1985963037        1.0168620723       -5.7834670762
 C        -7.0693047981       -0.0693357329       -6.0156771473
 O        -5.9877356779        0.1303931879       -5.4334020243
 C        -7.2638370387       -1.4005108195       -6.8161068390
 C        -5.9396907535       -2.3520988121       -6.4819829038
 C        -5.7877956047       -2.8585682620       -5.0110179315
 O        -6.7277485921       -2.8909302982       -4.2438173382
 C        -4.2055964804       -3.2003251594       -4.7039120549
 C        -3.2852015541       -1.8688657624       -4.6617463317
 O        -3.0151703514       -1.4907837526       -5.7648452123
 C        -3.1942669168       -0.9193645419       -3.4119625877
 C        -4.2232048595       -3.9282125293       -3.2681003258
 C        -3.6909489098       -4.0884122067       -5.9151079134
 C        -8.4595602530        1.6066790418       -7.3010210705
 C        -7.8728730132        2.0382423720       -4.7413609410
 C       -14.2525894730        3.8674481132       -3.3044935819
 C       -12.4258095604        4.6129160205       -4.9854832674
 C        -7.7482221528        4.9840321575        0.8300454996
 C        -8.8916375171        2.7927197733        1.9540391880
 C        -9.0194557479        9.5181751160        6.5871235213
 C        -8.6628628469        7.5064672335        7.9337663562
 C       -14.7398556622        7.1596970412        5.1351676720
 C       -15.7024216775        5.3189669444        6.8933986801
 H       -14.6286637347        2.9496469108        5.5017733135
 H       -14.9881939128        2.5691332933        3.7883565985
 H       -16.1116002639        3.3353619355        5.0663887006
 H       -13.5296598143        6.0843407306        8.6508007439
 H       -13.6564635440        7.6463490323        8.0057442962
 H       -10.8429365487        6.2713833453        8.0184893833
 H       -11.5061826050        7.3588976102        9.4309785445
 H        -8.6624604873        5.3511413178        5.6557442781
 H        -7.5206499776        6.6936112968        5.5386639135
 H        -7.0899436620        6.1802438008        3.2849603043
 H        -8.5689432925        6.9647103306        3.0146851513
 H        -9.5346187312        3.2429653614       -0.7691541513
 H       -10.0158654557        5.0217726332       -1.1613663646
 H       -12.3378983014        4.3221892693       -0.3562299672
 H       -11.8991619010        2.8113568481       -1.2254489961
 H       -11.0616944058        2.5281085461       -5.4068458896
 H       -12.0335030798        1.2817484006       -5.6126817448
 H       -11.3308720402       -0.1752304149       -4.2021251829
 H        -9.9759154257        0.7700285385       -3.4826599440
 H        -7.2894260936       -1.1587423807       -7.8667835404
 H        -8.2573901788       -1.7696141698       -6.5156988540
 H        -5.1542296168       -1.7062724901       -6.7839805944
 H        -6.0767452978       -3.2192787472       -7.1456377420
 H        -2.2041458114       -0.6825840503       -3.2416589822
 H        -3.6915611105       -1.4276772573       -2.5285732313
 H        -3.4871093725        0.0677324218       -3.5999330702
 H        -4.5609597584       -3.2119650650       -2.5684201742
 H        -3.1776321112       -4.1131075320       -2.8773031822
 H        -4.7648899229       -4.8793177893       -3.2749194344
 H        -3.4107582455       -3.3633076706       -6.7102517313
 H        -4.3207193268       -4.8710526704       -6.0979284563
 H        -2.7592009503       -4.5380295005       -5.7033129284
 H        -9.3904567388        1.0868881721       -7.6972195951
 H        -7.7659242001        1.1340208603       -8.0664716910
 H        -8.4201360921        2.6946652121       -7.4577814987
 H        -8.3999749366        1.9506662132       -3.7874702156
 H        -8.2054593175        3.0221995358       -5.0535971257
 H        -6.7139765793        2.0392037420       -4.5123793982
 H       -14.7056851497        3.2878315867       -4.0958585130
 H       -14.5533479361        4.9221214898       -3.1568567336
 H       -14.3618193394        3.2899441095       -2.3424411945
 H       -11.3748604704        4.6213923786       -5.2619345522
 H       -12.8677794802        5.5593927270       -4.8233982079
 H       -12.7737453757        4.1024184304       -5.8272271120
 H        -7.2098065927        4.1970681975        0.3546017740
 H        -7.0446948514        5.5200667605        1.3559439585
 H        -8.1159649854        5.5949014131       -0.0278143885
 H        -8.1365813211        2.5925841739        2.8353019902
 H        -8.7202307722        2.1348756128        1.1175525763
 H        -9.8750313907        2.2967124694        2.1778960629
 H        -9.3167186583       10.2680486358        7.2239426339
 H        -9.5590680948        9.8817050239        5.7662201945
 H        -7.9616519366        9.4589379924        6.3211239869
 H        -8.4190383109        6.4764969671        7.7937849053
 H        -9.1680781399        7.5934535373        8.9040639099
 H        -7.7267300792        8.0043961719        7.9687369995
 H       -15.0019232439        7.9577975020        5.8733614658
 H       -15.7111574180        7.1651440759        4.5417869338
 H       -13.8461568228        7.3154909494        4.4407846288
 H       -16.6967015897        5.3522867397        6.5134588377
 H       -15.5344244222        6.1376773315        7.6718450326
 H       -15.5455950731        4.2964283990        7.1442900013
 Na      -11.7791311611        5.9392981134        3.6085410845
