117

 C       -15.2355216372        3.4290183317        4.6326128956
 C       -14.4594308291        4.7633115667        4.4866431195
 O       -13.6905599213        4.8515848587        3.5501682054
 C       -14.5003612737        5.8277552209        5.6624378576
 C       -13.0118779261        5.8921551674        6.4471000518
 O       -11.9946011569        5.2125843825        6.0446424200
 C       -13.0628709939        6.8815740993        7.6275728564
 C       -11.7008477176        7.1703753631        8.1729423661
 C       -10.9168217407        8.2539508473        7.1623445886
 O       -11.5876152521        9.0455173627        6.5952614494
 C        -9.4270043418        8.1022618668        6.8176529352
 C        -9.4766800869        7.3417631224        5.5226503945
 O       -10.4364668205        7.5299061131        4.7978751255
 C        -8.2673843616        6.5403137626        5.0759201311
 C        -8.3614272721        6.0983172236        3.6490383606
 C        -9.2187515716        4.8750140087        3.2629581554
 O       -10.0515753306        4.4601003514        4.0407341698
 C        -9.0075906036        4.2797558131        1.8075028254
 C       -10.3353937989        4.6150376428        0.9848095976
 O       -11.3714513136        5.1207496542        1.4154601548
 C       -10.3063390030        4.2857880093       -0.5676798642
 C       -11.6777046641        3.8663722085       -1.2264478600
 C       -11.8678272186        4.6349102671       -2.5490580910
 O       -11.4059110460        5.7168882474       -2.8316759521
 C       -12.7306816111        3.9833717193       -3.6509444662
 C       -12.3701461601        2.4782657997       -3.6434947154
 O       -12.7478024006        1.7899466075       -2.7156371768
 C       -11.5810629045        1.7207355727       -4.7759972603
 C       -10.3117206186        0.9586893334       -4.2268824441
 C        -9.6412070588        0.2036400753       -5.4977304559
 O       -10.2006519734       -0.7351062544       -5.9653285810
 C        -8.2405046927        0.8600529487       -5.9513467337
 C        -7.0800294818       -0.3272728205       -5.7330879440
 O        -6.0769464896       -0.0540699388       -5.2215668533
 C        -7.3146050147       -1.6278849689       -6.5105423531
 C        -6.1458156706       -2.5315397748       -6.5170332456
 C        -5.8180168913       -2.9975290464       -5.0955982216
 O        -6.6311379877       -2.9816626898       -4.1846478875
 C        -4.1992060751       -3.1853788484       -4.6876099882
 C        -3.6307358862       -1.7015380972       -4.7325857318
 O        -3.0454767617       -1.3712179228       -5.7862115806
 C        -3.6635034707       -0.9527023753       -3.3308389252
 C        -4.0476205738       -3.8409189619       -3.3875304492
 C        -3.5554760478       -4.0998522822       -5.7092022636
 C        -8.2102472324        1.2335011360       -7.3851067643
 C        -7.6528499659        2.1021386788       -5.1299015776
 C       -14.2505855552        4.3057405498       -3.3405307294
 C       -12.3684336751        4.6250060322       -4.9937056173
 C        -7.8090049809        4.6328463790        0.9661287903
 C        -8.8567596453        2.7167550802        2.0920295973
 C        -8.8736796170        9.5175297364        6.4958864626
 C        -8.5413486166        7.5480630284        7.9068508990
 C       -14.8116824833        7.2624987388        4.9561471453
 C       -15.6359035760        5.6019996249        6.7049308490
 H       -14.8339660148        2.4823784802        5.0854699116
 H       -15.6336664448        3.2993977122        3.6621016155
 H       -16.1071990735        3.6404038027        5.2321334817
 H       -13.7774911736        6.4559836368        8.4911533225
 H       -13.5489654933        7.7907559885        7.2447981408
 H       -11.3029899351        6.2270917699        8.2937314039
 H       -11.7139925819        7.6498542147        9.1268602126
 H        -8.3217817597        5.6578219204        5.7421148123
 H        -7.2439426345        7.0535427046        5.3052837893
 H        -7.3422201245        5.7685096650        3.3867058056
 H        -8.5133382918        6.7802880886        2.7130004801
 H        -9.5778239171        3.5667060647       -0.7411409919
 H       -10.0758588686        5.3692292111       -0.9578604563
 H       -12.3938974816        4.2932638279       -0.4378505180
 H       -11.8611122251        2.8061268461       -1.2784941475
 H       -11.2511268274        2.3039169487       -5.7330870595
 H       -12.2778511335        0.9692483280       -5.2966071767
 H       -10.7704394910        0.2348914304       -3.6368135755
 H        -9.6480174191        1.6466079540       -3.6395922950
 H        -7.6366356714       -1.2716442968       -7.4960171075
 H        -8.1220679098       -2.1823060332       -6.0640208785
 H        -5.2903130663       -1.9402037989       -6.9261411306
 H        -6.5457065417       -3.3650644554       -7.1424750920
 H        -2.7033043152       -0.9663789624       -2.7108391810
 H        -4.5114041104       -1.1340723305       -2.7640999895
 H        -3.7062127626        0.1303736915       -3.5867059911
 H        -4.6209644352       -3.3308218638       -2.5901046407
 H        -3.0231908794       -3.8630371039       -3.0836513878
 H        -4.3610821329       -4.8683330230       -3.4990715925
 H        -3.9612085515       -3.8489944044       -6.7134280097
 H        -3.6492423174       -5.1754386132       -5.3901184155
 H        -2.4283747396       -3.9110670481       -5.7028724081
 H        -8.7160263889        0.6869338944       -8.0852417355
 H        -7.2299601342        1.3948127087       -7.7849146164
 H        -8.6082959779        2.2612182017       -7.3128572758
 H        -7.2868211702        1.7921405573       -4.1408773469
 H        -8.3984028376        2.8910344030       -4.9013756857
 H        -6.8215613495        2.4667060609       -5.5978084348
 H       -14.8630188306        4.1096476447       -4.2504087037
 H       -14.1085303119        5.3956569557       -3.0745478507
 H       -14.5988136919        3.6592359741       -2.5255750346
 H       -11.2915562772        4.8459721787       -5.1319162428
 H       -12.9406168638        5.5999106626       -5.1274908761
 H       -12.4399640655        3.9469740058       -5.9467814887
 H        -7.5394455529        3.8723909623        0.1982111569
 H        -6.8356696204        4.6923467416        1.5183202166
 H        -7.9238147634        5.6451239345        0.4845166583
 H        -7.9274382724        2.4628662131        2.3887986430
 H        -9.2199455383        2.1454102156        1.2465919370
 H        -9.4774202895        2.3067973753        2.8665167681
 H        -8.4750352372        9.9564655383        7.5005719951
 H        -9.5570613141       10.3591331370        6.1714108999
 H        -8.0008292691        9.4303683957        5.8194220194
 H        -9.0308309134        6.5277432648        8.2136761925
 H        -8.5134617222        8.2770054794        8.7769045016
 H        -7.5310047318        7.2587305934        7.6001243631
 H       -13.9557058166        7.9644406502        5.0700830984
 H       -15.6839441348        7.7747458797        5.3654023825
 H       -14.9016873037        7.0096666522        3.9099946952
 H       -16.5753095743        5.4930199275        6.0736903164
 H       -15.8279661479        6.4522633786        7.2943581739
 H       -15.4560910470        4.5982326252        7.1648273347
 Na      -11.8274054092        6.0973027906        3.6696298423
