117

 C       -15.4111875854        3.5774736805        4.5346273708
 C       -14.4307841302        4.7726123058        4.6109452192
 O       -13.8030534185        4.9403148390        3.5627485111
 C       -14.4313531421        5.9779730133        5.5963185379
 C       -13.0565917040        6.1251361698        6.3650764285
 O       -12.1718581807        5.5798823724        5.8519072792
 C       -13.0992802448        6.9956747403        7.6254324161
 C       -11.5849356198        7.2751691946        7.9084299252
 C       -11.0195649077        8.2840991594        7.0386648099
 O       -11.5943131350        9.3632502525        6.8267086185
 C        -9.4307849268        8.1557294944        6.6885531556
 C        -9.2735068438        7.4129958569        5.4106659963
 O       -10.3193255771        7.4633591954        4.7175504622
 C        -8.1880630816        6.4772415530        5.0012294427
 C        -8.1887665805        6.0457048327        3.5555154031
 C        -9.1579729866        4.8347399882        3.2848711807
 O        -9.9373006299        4.4384096301        4.1504837363
 C        -9.0416505600        4.0800979105        1.8999814940
 C       -10.3924785526        4.4667191797        1.1008127673
 O       -11.2819957267        4.9634519599        1.6725460218
 C       -10.4376213603        4.3706235770       -0.4263597181
 C       -11.7637536216        4.2293246782       -1.0937924109
 C       -11.6013608127        4.6618410072       -2.6800879773
 O       -10.9578197982        5.6808110754       -2.9121211162
 C       -12.6066948040        4.0635726793       -3.7300419424
 C       -12.4642153693        2.4633033801       -3.7330519131
 O       -13.1473459987        1.7626339775       -2.9501625745
 C       -11.6920417189        1.7569371855       -4.7618772964
 C       -10.3753340792        1.1919620628       -4.2104834846
 C        -9.4996860041        0.4141490328       -5.2791183310
 O        -9.8380734177       -0.7835751270       -5.5324897712
 C        -8.1460944083        0.8172583007       -5.9821022121
 C        -7.2667553550       -0.5260571186       -5.6383913786
 O        -6.2569097290       -0.4073088187       -4.9446670106
 C        -7.4932348351       -1.9378683979       -6.2169613857
 C        -6.1653398126       -2.8213305577       -6.4248737083
 C        -5.6974717805       -3.1236819457       -5.0046114231
 O        -6.4665071473       -3.2187539835       -4.0776760236
 C        -4.1918908062       -3.1517415068       -4.6627442300
 C        -3.7210391363       -1.6148397084       -4.7284312129
 O        -3.1785566902       -1.2586665405       -5.7162815105
 C        -4.0222164613       -0.8739727629       -3.4390187299
 C        -4.0868054033       -3.7947342335       -3.3134664133
 C        -3.4664347321       -3.9637430328       -5.8087367935
 C        -8.4319769866        0.8348338485       -7.5602545042
 C        -7.5364096378        2.0700778534       -5.4508359770
 C       -14.0875732453        4.2988184644       -3.3244741768
 C       -12.3853016602        4.6938491730       -5.0673895044
 C        -7.7408876426        4.5673525158        1.1859499655
 C        -9.3028850851        2.5865065217        1.9917386611
 C        -8.7571751329        9.6131913893        6.4746626158
 C        -8.6166870570        7.4594527588        7.8774665896
 C       -14.6279486042        7.2697489282        4.6470631534
 C       -15.6773004773        5.8363475415        6.6259238810
 H       -14.7676226904        2.8833214976        5.0642903273
 H       -15.5888626492        3.2480301667        3.4707719558
 H       -16.3946770017        3.4084679387        5.1201318340
 H       -13.5065055582        6.5258428724        8.4635142898
 H       -13.7192720099        7.8339759227        7.3967806456
 H       -11.0750844104        6.2437806192        7.6836113945
 H       -11.2494650969        7.5845000479        8.9616167609
 H        -8.0837131800        5.7157893326        5.7598873399
 H        -7.3783792666        7.0638530511        5.1910965914
 H        -7.1958889621        5.5737822258        3.3181815818
 H        -8.1467467526        6.7190923877        2.8053134981
 H        -9.7578094367        3.5142420091       -0.7955296220
 H       -10.0378885386        5.3203215050       -0.6037695691
 H       -12.3933615364        4.8609017902       -0.5436700801
 H       -12.1920848732        3.2214809328       -0.9329328443
 H       -11.4371037836        2.1865426655       -5.6501845201
 H       -12.4222210424        1.0248149187       -4.9953297584
 H       -10.6768914628        0.3556679016       -3.4896586373
 H        -9.9297732946        2.0676879225       -3.7453528707
 H        -8.1210447641       -1.7238600768       -7.0897693535
 H        -8.0824391595       -2.5320381203       -5.4659049585
 H        -5.4549731208       -2.2075397612       -6.9199742446
 H        -6.4967200443       -3.6915080964       -6.8959033834
 H        -3.6720865294       -1.5970050850       -2.7056752609
 H        -5.1245449749       -0.7754314248       -3.2314123932
 H        -3.5472016368        0.1338464615       -3.2135927496
 H        -4.8417069341       -3.4167763158       -2.6222420623
 H        -3.0682439831       -3.8195627917       -2.8904176869
 H        -4.3298619876       -4.8639958719       -3.4920693779
 H        -3.7806792318       -3.8671446481       -6.8175561427
 H        -3.8482571364       -4.9357972585       -5.3865254091
 H        -2.4216332241       -3.9848181347       -5.6336606450
 H        -8.3006820731       -0.2374979641       -8.0378244008
 H        -7.7307448700        1.4422222534       -8.1106591766
 H        -9.4232522761        1.0573116796       -7.9580062793
 H        -6.5740696667        2.1397834685       -4.9416723698
 H        -8.2816464159        2.5232569765       -4.8270487969
 H        -7.3486537727        2.8690979299       -6.2644801354
 H       -14.6231691715        3.7970775349       -4.1997478140
 H       -14.3158058469        5.3030312214       -3.3178770621
 H       -14.3193802904        3.6320686438       -2.5131991540
 H       -11.5224261934        4.3192934791       -5.6961188081
 H       -12.2802526528        5.8124020416       -4.9846460560
 H       -13.2048042988        4.4613625505       -5.7041017916
 H        -7.7423656476        4.4590380075        0.1163207362
 H        -6.7852010182        4.0427934091        1.3436070613
 H        -7.5903019622        5.5425374699        1.3839300560
 H        -8.4450012151        1.9742494109        2.4874298759
 H        -9.5724713070        2.0900813623        1.0441470090
 H        -9.9968468816        2.2641503268        2.7900160016
 H        -8.4868890923       10.0857156465        7.4015532345
 H        -9.5212064374       10.2460520199        6.0214115068
 H        -7.8467820162        9.6823385642        5.8619169951
 H        -8.9387568122        6.5523975387        8.1202810233
 H        -8.5149690767        8.1720317570        8.6184610119
 H        -7.5571162494        7.3361018722        7.5429851300
 H       -14.1100770606        7.0097223086        3.6965454782
 H       -14.2151885525        8.1548809123        5.2172906193
 H       -15.6842491205        7.3953495010        4.3762480103
 H       -16.6606412618        5.8780399980        6.2555991352
 H       -15.7181906964        6.7229179357        7.2979384039
 H       -15.3784044971        4.9539340562        7.0872334238
 Na      -11.6923983930        5.9425487230        3.6163964033
