117

 C       -15.4552780200        3.7515086670        4.8208988941
 C       -14.6149995028        4.9322346785        4.4297154217
 O       -13.7782695439        4.7582732696        3.5949928786
 C       -14.5914808021        6.2193273498        5.4085915099
 C       -13.2488859636        6.2833882445        6.2071143317
 O       -12.2536382100        5.7732181415        5.6437628077
 C       -13.0545097257        7.0492275170        7.6346883847
 C       -11.6151537835        7.3352966343        7.9558880309
 C       -10.9037413190        8.4546598064        7.1639677027
 O       -11.3854108557        9.5294959481        7.0293599402
 C        -9.3300531748        8.2711258216        6.6851599749
 C        -9.4466002035        7.3935121331        5.2737176768
 O       -10.2006873005        7.5651570673        4.3871400493
 C        -8.2254479012        6.4804934966        4.9891510514
 C        -7.9550792963        5.8926544465        3.6788213392
 C        -8.9544502352        4.7611267638        3.2414733197
 O        -9.6019847305        4.2940277034        4.1535946144
 C        -9.1028160384        4.0552665415        1.8823039988
 C       -10.4355553929        4.5535466359        1.0197112960
 O       -11.5140001746        4.9686888302        1.4956605447
 C       -10.3076513993        4.4542192615       -0.4654351106
 C       -11.7152297545        4.5064948902       -1.1420702596
 C       -11.4466359061        4.5859521243       -2.6374203343
 O       -10.5364580010        5.2419029479       -3.0820406286
 C       -12.6652280589        4.1528124721       -3.7252591288
 C       -12.5608617301        2.5202944596       -3.8171362379
 O       -13.2301460815        1.8068138939       -3.1636221431
 C       -11.5985082254        1.7836373788       -4.7668151907
 C       -10.0864826770        1.4487386001       -4.2977127407
 C        -9.5738492439        0.2563609769       -5.0787644014
 O       -10.0577340898       -0.7894618996       -5.1349159165
 C        -8.2712619874        0.5117060802       -6.1030861042
 C        -7.3425547147       -0.5893799942       -5.6326740423
 O        -6.4427036195       -0.4670142441       -4.8199101146
 C        -7.6152791243       -1.9774676763       -6.1923893241
 C        -6.3384547820       -2.8528149080       -6.1400185063
 C        -5.8040017333       -3.2931148093       -4.7723446670
 O        -6.6006535863       -3.5792145756       -3.9152909393
 C        -4.1490909760       -3.1834961118       -4.5791190767
 C        -3.7845253674       -1.7062939591       -4.5455304408
 O        -3.3514952572       -1.1182905871       -5.5424170067
 C        -3.7676503665       -0.8002239031       -3.2548453929
 C        -3.7126126928       -3.8932906658       -3.2266996637
 C        -3.3962583474       -3.8394627716       -5.8965708238
 C        -8.8650659767        0.5372628689       -7.5780156250
 C        -7.4821480400        1.7997690859       -5.8530306949
 C       -14.0529692978        4.4946655727       -3.1079807520
 C       -12.2644271680        4.8502433385       -5.1041238231
 C        -7.8186254569        4.0602409169        0.9713586318
 C        -9.4166399708        2.5669452928        2.1383521395
 C        -8.7488288131        9.6145594420        6.2954172884
 C        -8.5074185642        7.5490589901        7.8936060906
 C       -14.7277884204        7.6006515893        4.6762184732
 C       -15.8350572370        6.1446445006        6.4026864909
 H       -15.1774014770        3.2231355957        5.7202974457
 H       -15.7075360461        3.2021220189        3.9605812285
 H       -16.3851016427        4.0700734219        4.9999325969
 H       -13.4350874749        6.3445215376        8.4527900342
 H       -13.6145297553        8.0452893099        7.7802472308
 H       -11.0432334384        6.4788311198        7.7941489121
 H       -11.5943353629        7.4718524935        9.0339333002
 H        -8.3218105175        5.7665852712        5.8260778141
 H        -7.3461199279        7.1066741985        5.4475435471
 H        -6.9877983793        5.5450703454        3.4627143614
 H        -7.9129017075        6.6689373025        2.7935264931
 H        -9.9631657632        3.4780683982       -0.6793447249
 H        -9.6263528881        5.2512021886       -0.9158662969
 H       -12.4369376340        5.3876389840       -1.0037070673
 H       -12.3114757192        3.6590189418       -0.8265140082
 H       -11.4266164223        2.3472239170       -5.7805319359
 H       -12.0847010033        0.7539462518       -4.9379994360
 H       -10.0656125093        1.2639942249       -3.2762944361
 H        -9.4986462344        2.3308266359       -4.5683595606
 H        -8.0792010046       -2.0021971751       -7.1747797958
 H        -8.3207290701       -2.3506958563       -5.4945302874
 H        -5.6160263566       -2.2616332938       -6.7256773368
 H        -6.7075160257       -3.7864830015       -6.6980749069
 H        -2.9498585379       -1.0079197978       -2.6024360243
 H        -4.7130908417       -0.9086838406       -2.6891224260
 H        -3.8349980679        0.1664850208       -3.5766379906
 H        -4.2509616439       -3.4805705931       -2.3742843353
 H        -2.6059894705       -3.9267154371       -3.1361277447
 H        -3.9647331365       -4.9434276496       -3.2838050255
 H        -3.4536840515       -2.9921721939       -6.6663217188
 H        -3.9150567925       -4.5946025005       -6.3574570170
 H        -2.4127426312       -4.0701763362       -5.4991191717
 H        -9.3148929075       -0.3031170606       -7.9932213265
 H        -8.1514875041        0.9758055226       -8.3314619230
 H        -9.7466023186        1.1871178276       -7.5587690416
 H        -6.4650442957        1.3964747726       -5.7453928059
 H        -7.5999851809        2.4624295280       -4.9501724887
 H        -7.3537245755        2.5496930448       -6.5896952432
 H       -14.8071241795        3.9192809135       -3.5911464164
 H       -14.2721065562        5.6236388941       -3.4074987568
 H       -14.0552910019        4.1498721462       -2.0399426227
 H       -11.2378396588        4.6806345905       -5.3944377308
 H       -12.1787207993        5.9351837475       -5.1056933417
 H       -13.0038940493        4.6677664485       -5.9280327335
 H        -7.6520234151        3.1168553377        0.4722765369
 H        -6.9962634468        4.0421713844        1.6029620236
 H        -7.5118707797        4.8890411339        0.2228262654
 H        -8.9406978125        2.0181189285        2.8907868638
 H        -9.3532289615        1.9988563955        1.2307901559
 H       -10.3980678376        2.4468029585        2.5655313226
 H        -8.9113227899       10.4581227621        6.9585517750
 H        -9.0051263694        9.7308000047        5.2603737620
 H        -7.6603894154        9.6080293798        6.2950857968
 H        -8.3338686305        6.4719759970        7.5267068558
 H        -9.1446357223        7.6545631132        8.8604797263
 H        -7.6120265614        8.0294839751        8.1620296590
 H       -15.4911271436        7.4221828482        3.8808355922
 H       -13.7278683731        7.9217337457        4.4345859983
 H       -15.0499446259        8.4681457909        5.3400685245
 H       -16.6285331996        6.2221668377        5.6637400570
 H       -16.0136896591        7.0663824356        6.9900953526
 H       -15.8619542368        5.2932925712        7.1425027125
 Na      -11.6294640246        5.6664960159        3.6516828614
