117

 C       -15.6992687545        4.0118956140        4.9600283195
 C       -14.7283047493        5.1210699361        4.6432885726
 O       -13.8727981393        5.0406485692        3.6881373490
 C       -14.6854250468        6.4062437832        5.4903179204
 C       -13.2116539353        6.4486718546        6.2599460305
 O       -12.2328734835        5.8407338171        5.8134467741
 C       -13.1947570785        7.3431231961        7.4914311530
 C       -11.6580518113        7.3015721406        7.8604659444
 C       -10.8449514597        8.4451820329        7.0802260522
 O       -11.3838819053        9.5166925439        7.0878727926
 C        -9.3716888497        8.2175947000        6.5290455475
 C        -9.3374264327        7.3128710402        5.2211339112
 O       -10.2304544766        7.3866216744        4.3113719987
 C        -8.1173585102        6.2791565790        4.9366773357
 C        -8.1155372112        5.8589486167        3.4236962434
 C        -8.9269447597        4.6339017732        3.3010880742
 O        -9.6632109225        4.3403912776        4.2570175219
 C        -9.1179373639        3.9280627215        1.8877709607
 C       -10.2129666924        4.5906248891        0.9789989240
 O       -11.2007805572        5.0637404688        1.4470972980
 C       -10.1922627611        4.3779511427       -0.5414110770
 C       -11.4776149598        4.5770048416       -1.3095168048
 C       -11.2616173532        4.5269240104       -2.8895290565
 O       -10.1276209752        4.6896159246       -3.2881431619
 C       -12.4756156709        4.2199478406       -3.7434724881
 C       -12.5753113266        2.6841279917       -3.8472111326
 O       -13.2560967252        2.0018179555       -3.0615848742
 C       -11.6629309992        1.9691594060       -4.8699936087
 C       -10.1781018929        1.8418250274       -4.3516903676
 C        -9.5123762186        0.5280875613       -4.9390092022
 O       -10.2660346811       -0.4677012424       -4.7520045511
 C        -8.4391914376        0.4132976797       -6.0562897795
 C        -7.4114193418       -0.8209673448       -5.6831578931
 O        -6.5965661320       -0.5895670620       -4.8428848073
 C        -7.5938470242       -2.2487899845       -6.1050792032
 C        -6.2882383060       -3.0885124538       -6.0224824549
 C        -5.7281291014       -3.2898926417       -4.6509014364
 O        -6.3228789467       -3.8446729207       -3.7398802596
 C        -4.0732885520       -3.1114297563       -4.5820902050
 C        -3.7528394628       -1.6080743342       -4.5037059621
 O        -3.5955915906       -0.8575556182       -5.4406130172
 C        -3.7163822596       -1.0606131538       -3.1117404931
 C        -3.6886393392       -3.9450208833       -3.2563970972
 C        -3.4924830758       -3.8736100113       -5.7236678215
 C        -9.0271842617        0.0786574674       -7.4036788297
 C        -7.6716703998        1.7244757762       -6.1324042730
 C       -13.9165601290        4.6540889681       -3.1067513969
 C       -12.4006287149        4.7676848931       -5.2169679918
 C        -7.8253486864        3.9454789528        1.0770617338
 C        -9.6284845185        2.4754586642        2.2134249613
 C        -8.8778076810        9.6780119508        6.0498782311
 C        -8.5600675213        7.5523807869        7.7750379299
 C       -14.6462768206        7.5435983838        4.3722944315
 C       -15.8152081543        6.5615427647        6.4416155312
 H       -15.7609508207        4.0639701562        6.0683339138
 H       -15.2004805561        3.0570894678        4.7167895753
 H       -16.6895430848        3.6518815340        4.4783980287
 H       -13.9001045543        6.9173433528        8.1725247029
 H       -13.4827123460        8.2961798005        7.2799413575
 H       -11.2216002991        6.2451402295        7.8087316725
 H       -11.5358227885        7.5124397104        8.9277615368
 H        -8.1546836467        5.4969079728        5.6666488619
 H        -7.2606022407        6.7814669727        5.1865634328
 H        -7.0560922806        5.6676745164        3.0154028196
 H        -8.3406292912        6.4664147615        2.6486200313
 H        -9.8502995402        3.3019114848       -0.7437630367
 H        -9.5189766687        5.0132447031       -1.1410245942
 H       -12.1704132642        5.3120187487       -1.0194700250
 H       -12.0471573826        3.6465181315       -1.0909173268
 H       -11.5934160942        2.6397784415       -5.6717158879
 H       -11.8560974574        0.9372361661       -5.1569372015
 H       -10.2561309497        1.8271621767       -3.2132575352
 H        -9.6120006960        2.7215345054       -4.6590631645
 H        -7.9867656153       -2.3849533864       -7.1244019619
 H        -8.4102533469       -2.6226518541       -5.4078350213
 H        -5.6037272240       -2.5903638972       -6.7229600631
 H        -6.6134932830       -4.0166149713       -6.4383820078
 H        -2.5838481180       -1.1488453129       -2.9771614211
 H        -4.1589576829       -1.4950268478       -2.2464882860
 H        -4.1650388850        0.0119337799       -3.1580093664
 H        -4.3349487734       -3.5028243270       -2.4926444840
 H        -2.6677810771       -3.8425839819       -3.0620851111
 H        -3.8567382034       -5.0148710102       -3.2181364324
 H        -3.6217499256       -3.2149215219       -6.5049289011
 H        -4.3106145736       -4.6226055199       -6.0570358740
 H        -2.4620814815       -4.1493740966       -5.4708185608
 H        -9.9788689812       -0.4383465442       -7.3480124019
 H        -8.3413908605       -0.5698456596       -7.7967397834
 H        -9.2609528643        0.7832368472       -8.1935326835
 H        -7.0219326820        1.9556360716       -6.9410347104
 H        -7.0463042061        1.9674643463       -5.3015163174
 H        -8.3983137314        2.5120198259       -6.1016673220
 H       -14.7143590580        4.5523500849       -3.9152707035
 H       -13.9225747892        5.6751342983       -2.9023877288
 H       -14.0929965832        4.0005439461       -2.2696406922
 H       -11.3833165237        4.9992011580       -5.6296525782
 H       -12.7717501888        5.8480552126       -5.3517308742
 H       -13.1668469480        4.2692684318       -5.8502068099
 H        -7.8119616315        3.2854590124        0.1887996783
 H        -6.7556618340        3.8732700342        1.5379494957
 H        -7.7900513896        4.9015162964        0.6189459719
 H        -8.9003567164        1.8519242019        2.6949040012
 H        -9.7932156076        1.8205741065        1.3300675915
 H       -10.3927054419        2.4364079559        2.9445664410
 H        -8.9739380145       10.3457249090        6.9137565529
 H        -9.3031824474        9.9438101009        5.0521223043
 H        -7.7970593044        9.8096183257        5.9087816318
 H        -8.6860443081        6.4891972034        7.7065441033
 H        -8.8574665653        7.8780874883        8.7043933411
 H        -7.4600996479        7.8427438172        7.6995727179
 H       -15.5190306153        8.0687232969        4.6177870021
 H       -14.5404650824        7.2609746303        3.3488387375
 H       -13.7245473666        8.0340033120        4.4596555288
 H       -16.8230073010        6.8196109830        5.9666758582
 H       -15.5277326369        7.3438204436        7.1418159141
 H       -15.7981467762        5.7400881959        7.1536470587
 Na      -11.4894885189        5.5389563554        3.6797312725
