117

 C       -15.8554094241        4.2381058115        5.1015136371
 C       -14.7821605509        5.2564162863        4.5835676307
 O       -13.9506142774        4.8783708086        3.8633582876
 C       -14.5961755802        6.7216006107        5.4498922979
 C       -13.2727269505        6.6328671293        6.1466494660
 O       -12.3991581059        5.8286121177        5.9434915889
 C       -12.9888639064        7.4674539882        7.5595593392
 C       -11.5244727619        7.4666147006        7.9384525805
 C       -10.8460832833        8.4152817280        7.0385153241
 O       -11.3842781162        9.5577443178        6.7819729508
 C        -9.3728263847        8.1681856488        6.4929453258
 C        -9.4926484124        7.1644589691        5.1525604216
 O       -10.4110005834        7.2893804380        4.4422089156
 C        -8.1361275939        6.5140427017        4.7556531869
 C        -8.1853453073        5.8399929286        3.4213250579
 C        -9.1581828989        4.5662725165        3.1772162721
 O        -9.7665509439        4.1366230292        4.1016279704
 C        -9.0661564088        3.8182764904        1.8429940455
 C       -10.0234542265        4.5721142444        0.8870940999
 O       -10.9290917392        5.2425269566        1.3837571617
 C        -9.9730746976        4.2738084161       -0.6082540416
 C       -11.3441263712        4.6044034704       -1.4127292483
 C       -11.1294533914        4.5157844474       -2.9742656231
 O       -10.0698176043        4.2501000381       -3.5484722396
 C       -12.3592805217        4.3916146098       -3.7713325535
 C       -12.4590450094        2.7301324028       -3.8056495680
 O       -13.1194954451        2.2740100549       -2.9214309224
 C       -11.8103723939        1.8768597111       -4.9932935163
 C       -10.2533833093        1.8531284091       -4.7231367015
 C        -9.6791543213        0.4284821141       -4.9659693347
 O       -10.1551499211       -0.5466585905       -4.4541449007
 C        -8.5475984872        0.1943512981       -5.9540930623
 C        -7.5789905753       -0.8916011101       -5.4168253940
 O        -6.6673802269       -0.3897305125       -4.6811939957
 C        -7.7872198333       -2.4364629177       -5.6460227353
 C        -6.3989192740       -3.0672151178       -5.9813302042
 C        -5.6079465536       -3.4321676650       -4.6522944427
 O        -6.3065670709       -3.7509969769       -3.7148150259
 C        -4.1086598533       -3.2041427770       -4.4635006381
 C        -3.9491291495       -1.7316572999       -4.3234077792
 O        -3.8582140239       -1.0509137975       -5.3247229275
 C        -3.5881826515       -1.0637926659       -3.0476840541
 C        -3.5555359326       -3.9518361720       -3.2412769729
 C        -3.2702994213       -3.6855440462       -5.6909165134
 C        -9.3037639233       -0.2330808024       -7.2546854313
 C        -7.6656691620        1.3306230481       -6.4354778601
 C       -13.6116666890        5.0171773131       -3.0998794960
 C       -12.3703106431        5.0170243889       -5.1117457590
 C        -7.6509194371        3.6776879078        1.4441510271
 C        -9.5912056302        2.3688675247        2.0010646644
 C        -8.7999932642        9.5417329170        5.8448493243
 C        -8.3937262272        7.6075998853        7.5258635129
 C       -14.4657961867        7.7779142378        4.3516418246
 C       -15.8118842451        7.0275515465        6.3586250545
 H       -16.5705679764        4.5718967135        5.7882846350
 H       -15.5507512769        3.2077538771        5.3109962342
 H       -16.3713232747        3.9279328842        4.2309750534
 H       -13.5947948034        7.0533730032        8.4084600220
 H       -13.3485870887        8.6123140043        7.3629576178
 H       -11.2566724282        6.4267374807        7.8865226640
 H       -11.3401211919        7.6583068699        9.0219581187
 H        -7.7861905162        5.9848574595        5.6626339011
 H        -7.3691644458        7.3867719889        4.7084971092
 H        -7.2101612950        5.8112812608        3.0616801633
 H        -8.5398217270        6.5064390814        2.5260535675
 H        -9.6676702839        3.1989042270       -0.6273030359
 H        -9.2295698784        4.6870460533       -1.2604944261
 H       -11.7567925210        5.6326505182       -1.2162739212
 H       -12.1729565535        3.9988161252       -1.0908912003
 H       -11.9469384504        2.4601270701       -5.9021486128
 H       -12.0388538829        0.8099248512       -4.8773972760
 H       -10.0457888723        2.1147065516       -3.7072117534
 H        -9.7386493191        2.5898960105       -5.3608382636
 H        -8.4982235338       -2.5823344404       -6.4725726944
 H        -8.2221889700       -2.9082367455       -4.7802403254
 H        -5.8944737833       -2.4094698053       -6.6936020605
 H        -6.5956232268       -3.9793083700       -6.6429664698
 H        -2.6656571395       -1.3651068075       -2.7068232138
 H        -4.3083873912       -1.3846823006       -2.2487172973
 H        -3.8040876584       -0.0746556977       -3.2384561945
 H        -4.3076221347       -4.0495093020       -2.4931255619
 H        -2.5121229232       -3.6123188236       -2.8864732661
 H        -3.3847954025       -4.9458700071       -3.6470852562
 H        -3.7786043501       -3.3078112661       -6.6127968954
 H        -3.3372261477       -4.7060222290       -5.6918139487
 H        -2.3373013583       -3.2435946531       -5.5362552993
 H        -9.8937030838       -1.2033583305       -7.1175957116
 H        -8.8318281232       -0.2983588834       -8.3016408028
 H       -10.1452653142        0.4578170680       -7.3560887179
 H        -7.7856995440        1.6857776287       -7.4708184470
 H        -6.5990146425        1.0686618986       -6.4666738564
 H        -7.6178773230        2.3249858628       -5.8979492342
 H       -14.3115827203        5.3592250131       -3.8247322712
 H       -13.3885837486        5.9742912939       -2.5121227410
 H       -13.9997939044        4.1697173645       -2.4519913338
 H       -11.4572682758        4.8039912418       -5.5503844558
 H       -12.3939259504        6.0246654761       -5.2818150988
 H       -13.2059075897        4.7746849329       -5.6812687074
 H        -7.5870941640        3.4625149583        0.3932814048
 H        -7.1700355672        2.9827088879        2.0588387021
 H        -6.9731275799        4.4999807713        1.5828579344
 H        -8.8962838573        1.5320558831        2.3047442104
 H        -9.8129768967        1.9139390793        1.0622365259
 H       -10.4434000859        2.2603041919        2.7546114296
 H        -8.3725991951       10.2233206165        6.5096935424
 H        -9.4678596190        9.9147809938        5.1514708724
 H        -7.9603485707        9.3374660654        5.1796765808
 H        -8.9170639703        7.0994761769        8.3232619477
 H        -7.9039925815        8.4532683350        8.1245322932
 H        -7.6548919509        6.9900919667        7.0083922916
 H       -14.1381775059        8.6431903097        4.9265917871
 H       -15.5409228835        8.0941025378        4.2273443907
 H       -14.1256701723        7.3775961609        3.3635089039
 H       -16.5660862587        6.4974287535        5.8906108123
 H       -15.9179787630        8.1322007347        6.4709959768
 H       -15.7559558702        6.7743152828        7.3983482268
 Na      -11.8158283236        5.4683275165        3.7137821155
