117

 C       -15.9846071303        4.4543592631        5.1562801215
 C       -14.8445171955        5.3265740128        4.7621301402
 O       -14.0557678667        4.8505784848        3.9350542593
 C       -14.6562147634        6.7530730937        5.3514346185
 C       -13.2714727863        6.5616628321        6.3331146039
 O       -12.3709847158        5.8319506904        6.0228864937
 C       -13.0704389624        7.4048218426        7.6195354819
 C       -11.5434689381        7.5963526611        7.9121570492
 C       -10.7338621967        8.6100580201        7.0258188464
 O       -11.4512564017        9.5514497810        6.5919799147
 C        -9.2557155706        8.2499698577        6.3937912403
 C        -9.5094209617        7.2790506788        5.1747047463
 O       -10.5826600833        7.2191194070        4.5764044005
 C        -8.2676917287        6.5020562007        4.6418926106
 C        -8.3521361950        5.8137073648        3.3347155424
 C        -9.1113396979        4.4103740757        3.2575195895
 O        -9.8887387993        4.1259220886        4.1093028619
 C        -8.9363772214        3.6988714651        1.8290416507
 C        -9.9748416215        4.5410360825        0.8432486843
 O       -10.7845170673        5.3265261720        1.3250034093
 C        -9.8952563628        4.2307299398       -0.6855336773
 C       -11.1518692018        4.7271690187       -1.4995426718
 C       -11.0091283056        4.4626168135       -2.9806399593
 O        -9.9238972117        4.3334330866       -3.5057635933
 C       -12.3474547547        4.3531479662       -3.7822919333
 C       -12.5987671297        2.8539242170       -3.8125947824
 O       -13.0896408006        2.2497368240       -2.8093928444
 C       -11.9907746482        2.0260949448       -4.8750255268
 C       -10.3430650260        1.7742639401       -4.9158703410
 C        -9.6512503115        0.3641428561       -5.0160066147
 O       -10.0817657224       -0.5994970365       -4.3095953847
 C        -8.5746447164        0.0906765283       -6.1178913915
 C        -7.6463858521       -0.9819372943       -5.3514998273
 O        -6.8110419427       -0.4785556741       -4.5741046747
 C        -7.6161258477       -2.4580496145       -5.3906958246
 C        -6.3458340225       -3.0850584544       -5.8875599805
 C        -5.6483078271       -3.4258994256       -4.5447612900
 O        -6.3088438819       -3.7890147525       -3.6021841887
 C        -4.0238883388       -3.3324882059       -4.4419876383
 C        -3.9058699517       -1.6542337718       -4.4048180983
 O        -4.0302124423       -1.0674195999       -5.4296207732
 C        -3.6093805161       -1.0663185959       -2.9111066387
 C        -3.5787496123       -4.0863813757       -3.1484068234
 C        -3.2821471027       -3.5336209124       -5.7762146994
 C        -9.5067970420       -0.4806774424       -7.2562247247
 C        -7.6988356556        1.2918344467       -6.5028570499
 C       -13.6045054336        5.1558212459       -2.9723100620
 C       -12.0735512825        5.0883677675       -5.1652003316
 C        -7.4505511822        3.5670848386        1.3056921903
 C        -9.7120810135        2.3857075201        1.9767505797
 C        -8.6255733854        9.4783937527        5.6837909058
 C        -8.3027766417        7.5960138814        7.4915001033
 C       -14.3478851334        7.9315056408        4.2699257443
 C       -15.8182846731        7.2055489449        6.2661378824
 H       -16.7730102946        4.8532013794        5.6989789718
 H       -15.7113528843        3.5635999610        5.6123582208
 H       -16.3854837560        3.9488671205        4.2602616360
 H       -13.5804701805        6.9866283755        8.5063991266
 H       -13.6001962166        8.3568855191        7.2866429183
 H       -11.2525789026        6.5402428256        7.8122419781
 H       -11.4388268245        7.7287774371        8.9183885245
 H        -8.0615566056        5.7634885182        5.5300694446
 H        -7.3990255195        7.1637527008        4.6437335637
 H        -7.2210913060        5.6598041452        3.1440269971
 H        -8.4896000960        6.3299785422        2.3626017406
 H        -9.6928397859        3.0728268445       -0.9205022930
 H        -8.9916957661        4.6569817157       -1.0920232475
 H       -11.6172940371        5.6742487018       -1.2128999752
 H       -11.9333136446        3.9884558979       -1.1498584697
 H       -12.1676433983        2.5805002336       -5.8341100937
 H       -12.3186738371        0.9209682053       -4.6556039551
 H        -9.8426608278        2.1569344021       -4.0214867886
 H        -9.9605857668        2.3821082395       -5.6690778682
 H        -8.4397410220       -2.7090570961       -6.0366535979
 H        -7.8186403960       -2.9061320254       -4.4473285880
 H        -5.7110060715       -2.4135467409       -6.4814541046
 H        -6.5092316177       -3.9735853156       -6.6194818137
 H        -2.7869637393       -1.5891602999       -2.5336408672
 H        -4.3550928684       -1.4210287251       -2.2795345267
 H        -3.5826345097        0.0356308057       -2.8009278029
 H        -4.4283628687       -3.9370903168       -2.4845913333
 H        -2.5863797433       -3.7577191482       -2.7272648790
 H        -3.4910710051       -5.1719477683       -3.3665922735
 H        -3.8413565582       -3.1353244300       -6.5804700728
 H        -3.0666702195       -4.6820203671       -5.8730530445
 H        -2.4106941209       -2.9148431454       -5.6131482555
 H        -9.7433551084       -1.5991733232       -7.0160566799
 H        -9.2058008067       -0.4614729043       -8.2799264431
 H       -10.4907793699       -0.0200905417       -7.2735072855
 H        -8.1308325643        2.0519656806       -7.1701631323
 H        -6.8270267451        1.0328531070       -7.0342001273
 H        -7.3180294162        1.9649727235       -5.6678799055
 H       -14.4269185808        5.3668535803       -3.7816835906
 H       -13.3814867990        6.1028943547       -2.5395539741
 H       -13.9634060861        4.3773169503       -2.2268093961
 H       -11.1938313959        4.7193369565       -5.7158542703
 H       -11.8366857965        6.1625819043       -5.1969143617
 H       -12.8734754798        5.2512187121       -5.8496192701
 H        -7.3982736411        2.8796247304        0.4242951614
 H        -6.9005709479        3.1682156397        2.2493548155
 H        -6.8562723423        4.3928179240        1.0852393208
 H        -9.1989405753        1.6276534867        2.5720532190
 H        -9.7623046546        1.7982663773        1.0932818036
 H       -10.6728519626        2.4982619156        2.4322280809
 H        -8.4121702986       10.2464634919        6.3786283462
 H        -9.3564738377        9.8289521717        4.9727947449
 H        -7.7359253159        9.3764557617        5.0513192710
 H        -8.7978724059        7.1012497154        8.3061469735
 H        -7.7845011563        8.4136100852        8.0385572454
 H        -7.5525623486        6.9725479638        6.8279532256
 H       -13.4455030492        8.4044822374        4.6097346019
 H       -15.0884894495        8.7939103677        4.4630661878
 H       -14.5147677610        7.4891387447        3.2515961176
 H       -16.7738648223        6.8885159833        5.8515525918
 H       -15.6030760116        8.2646791075        6.5425756697
 H       -15.8483226901        6.7396114542        7.2513996222
 Na      -11.8857047613        5.4175686086        3.5596378218
