117

 C       -16.3580194131        4.9343191467        5.2956297940
 C       -14.9857435748        5.5711721767        4.7752550832
 O       -14.3042343492        4.9883229178        3.9966090621
 C       -14.4107003936        6.9056196977        5.4491811938
 C       -13.1160759422        6.6170689559        6.3711614727
 O       -12.4334017476        5.6794940917        6.0935975733
 C       -12.9093932709        7.5265455594        7.5140135719
 C       -11.3705958906        7.7689827265        7.7297078996
 C       -10.8296807295        8.7401657124        6.6528300499
 O       -11.3858541871        9.7316404997        6.0983553238
 C        -9.3570276911        8.3337576408        6.1986924150
 C        -9.4800720325        7.1346050856        5.0454118863
 O       -10.5709819978        7.0655883871        4.5646071571
 C        -8.3673662418        6.1617684290        4.7367123693
 C        -8.5175986291        5.7103109164        3.2944581348
 C        -9.1788641253        4.3411710421        3.1953707431
 O        -9.9664863308        3.9972754338        4.0012244690
 C        -9.0510866362        3.5673841084        1.8714098054
 C        -9.8825778275        4.4707844278        0.7995216224
 O       -10.6645917369        5.2846105513        1.2599420371
 C        -9.6753384044        4.3533044590       -0.6949116276
 C       -10.9858665634        4.7267395020       -1.5573467871
 C       -10.5989704627        4.6271678659       -3.0215425094
 O        -9.4249342610        4.8030170602       -3.3915966134
 C       -11.9102039309        4.4157554090       -3.8377350958
 C       -12.3831184631        2.7725946192       -3.5424890130
 O       -13.1681242789        2.4646213843       -2.6172412641
 C       -12.1061125595        1.8113941886       -4.6936664391
 C       -10.6295765008        1.8471708623       -5.3288143424
 C       -10.0448801852        0.3882168316       -5.0482383038
 O       -10.3902324491       -0.2143468106       -3.9912653414
 C        -8.9495386946       -0.1068490308       -6.1076013961
 C        -7.8731465484       -1.0795555989       -5.3250038543
 O        -7.1904046154       -0.5242943692       -4.3961345324
 C        -7.7305570730       -2.6653633464       -5.2956856249
 C        -6.3605129759       -3.1858691339       -5.5542610951
 C        -5.5797347776       -3.5204710733       -4.2622660947
 O        -6.1231831752       -4.0763658935       -3.3700913802
 C        -3.8829197972       -3.2295944729       -4.3116006174
 C        -3.8732711082       -1.6861899758       -4.2755902650
 O        -4.1851965758       -0.9839127328       -5.2018919701
 C        -3.7072553578       -1.1278134170       -2.8728779767
 C        -3.0863400336       -3.9361478408       -3.1964745464
 C        -3.5823851173       -3.7856115238       -5.7187060902
 C        -9.6072847595       -0.9804480309       -7.2535832421
 C        -8.0769587732        1.0438415885       -6.6404706968
 C       -13.2265264487        5.2259907776       -3.1681270097
 C       -11.6127779701        4.8046722813       -5.3422720835
 C        -7.5582249819        3.3111357446        1.4100689391
 C        -9.7959560835        2.2566582152        2.0215157113
 C        -8.6714070032        9.5389260703        5.5275411716
 C        -8.5756671289        7.7519175426        7.3488984543
 C       -13.9125305219        7.8887442078        4.3183483585
 C       -15.5089031925        7.7717391720        6.2607829474
 H       -17.2438372758        5.2169857228        4.7040524329
 H       -16.7238209892        5.0764044738        6.3359550901
 H       -16.3514346569        3.7875116960        5.1685668602
 H       -13.6266526913        7.2010646284        8.2943762910
 H       -13.1572075081        8.6402148851        7.1529855321
 H       -10.7861067322        6.8190704127        7.6365261773
 H       -11.3638418843        8.0954653285        8.7835097787
 H        -8.7591874893        5.3551841072        5.3973932615
 H        -7.4102391680        6.6406164824        5.0485651373
 H        -7.6107326740        5.6360224827        2.7725364490
 H        -9.0998595870        6.4935966128        2.6947735877
 H        -9.0685904827        3.4613376863       -1.0695845549
 H        -8.9519704296        5.0444950412       -0.9404082522
 H       -11.1327506112        5.7719193702       -1.2722065092
 H       -11.9080058976        4.2167533286       -1.2434988393
 H       -12.7896836147        2.0172211351       -5.4383253185
 H       -12.1559592069        0.8257957272       -4.2167063616
 H        -9.8819450109        2.5670187239       -4.9331588183
 H       -10.6265927528        2.0921365490       -6.4159723747
 H        -8.4286407875       -2.9809660361       -6.1302483987
 H        -8.2264407705       -2.9044252814       -4.3326815729
 H        -5.8304488964       -2.4604532895       -6.1263976829
 H        -6.2603072178       -4.0406418344       -6.2555177633
 H        -2.8573395378       -1.3552942808       -2.2693415718
 H        -4.6147641173       -1.4154827822       -2.2817615154
 H        -3.7625111656       -0.0258917011       -3.1236434592
 H        -3.2564591678       -3.4015134477       -2.3109862319
 H        -1.9644858065       -3.8792204297       -3.3893457291
 H        -3.4795149479       -4.9184558132       -3.1176118642
 H        -3.7273785838       -3.0103755380       -6.4224396830
 H        -4.0578040659       -4.7864153966       -5.7380912797
 H        -2.5546748056       -4.0099493436       -5.6701754725
 H       -10.5910932503       -1.4695477336       -6.8528016938
 H        -9.0481610516       -1.8895404451       -7.5575638397
 H        -9.7139063824       -0.4295916605       -8.1455795411
 H        -8.1411178657        2.1026018002       -6.3649868228
 H        -8.1043068400        0.9697453577       -7.6894672305
 H        -6.9543816153        0.8509406537       -6.4931041878
 H       -14.0995618980        4.9268771737       -3.7818370772
 H       -13.0521900317        6.2910741172       -3.2455220397
 H       -13.5054940705        5.0040422108       -2.1232038787
 H       -10.7981808802        4.4871085854       -5.9218875980
 H       -11.6207525946        5.8527679921       -5.4503056301
 H       -12.4160509432        4.6838455080       -6.0053822389
 H        -7.6087967344        2.4022728003        0.8337320569
 H        -6.9368457280        3.1266608440        2.3125671111
 H        -7.0850359686        3.9976048698        0.8445725387
 H        -9.3960602766        1.6796309208        2.9632463480
 H        -9.7470769656        1.4857240824        1.2422616018
 H       -10.9063015873        2.4584377587        1.9795006930
 H        -8.6048508460       10.4774157292        6.0374787556
 H        -9.2344609578        9.7942534815        4.6237072789
 H        -7.6908076841        9.2069516818        5.0675687942
 H        -8.5362212048        6.7361857011        7.2651790451
 H        -8.9448796043        7.9010120427        8.3345305857
 H        -7.4744675520        8.0945636902        7.2723746484
 H       -13.8075768678        7.3016936992        3.3888299528
 H       -12.9503531883        8.1550848841        4.6790585494
 H       -14.6723451148        8.6157218675        4.0961025750
 H       -16.2231917409        7.9198170730        5.5053385878
 H       -15.1372956544        8.7470222787        6.7392363153
 H       -16.1475106966        7.2096812895        6.8341334765
 Na      -11.8639983532        5.3535529713        3.4285793856
