117

 C       -16.2676648543        5.2056012131        5.2484356258
 C       -14.9725736748        5.7075254637        4.8169276302
 O       -14.3152864645        4.9997208556        4.0039355965
 C       -14.4048558079        6.9718429389        5.3043144192
 C       -13.1809978267        6.6636988372        6.3333706790
 O       -12.4290093521        5.6547302107        6.1547586230
 C       -12.9507518901        7.6500579739        7.4950626829
 C       -11.4420404894        7.8729083964        7.6440334052
 C       -10.7325551903        8.6614844719        6.4894057397
 O       -11.4507325325        9.5511908764        6.1574985678
 C        -9.2858627538        8.3098356121        6.0868321400
 C        -9.4993695305        7.1833134371        5.0406865188
 O       -10.5642814183        7.1893229494        4.3462813037
 C        -8.2801888467        6.2039659047        4.8248805676
 C        -8.4186883055        5.6045690877        3.4268174799
 C        -9.2068516301        4.2449028248        3.2485401056
 O       -10.0060218108        3.8905059266        4.0722297193
 C        -9.1293349248        3.5793583443        1.8832007930
 C        -9.8413592766        4.5157998154        0.9085422622
 O       -10.8459304846        5.1665777779        1.3157702266
 C        -9.5257161727        4.4284579423       -0.5964139639
 C       -10.8750098905        4.6772400227       -1.5081122460
 C       -10.6171316164        4.7035557189       -2.9966725672
 O        -9.5766856325        4.8412642199       -3.5593874778
 C       -11.8912864376        4.3574946758       -3.9358860329
 C       -12.3411183408        2.9066050440       -3.6390062762
 O       -12.9454351982        2.7297216741       -2.5794041057
 C       -12.1585706751        1.7874662810       -4.6481940859
 C       -10.7954510146        1.7066468853       -5.4295655080
 C        -9.9839492583        0.4224878733       -5.1656825966
 O       -10.3938727957       -0.1875845888       -4.1951616771
 C        -8.9430777761       -0.3254671355       -6.0733974092
 C        -8.0130317745       -1.1329009800       -5.0420928565
 O        -7.2699364045       -0.5351047245       -4.3252037740
 C        -7.7659625095       -2.7306512088       -5.1260012531
 C        -6.3646313607       -3.1520134900       -5.4637718454
 C        -5.5481700497       -3.5422470442       -4.1911028471
 O        -6.0808110991       -4.1133390591       -3.2421343617
 C        -4.0454516036       -3.3378124711       -4.3007142645
 C        -3.9528095279       -1.6669939887       -4.1654185586
 O        -4.0449688780       -1.1027245367       -5.2379148720
 C        -3.7293080163       -1.0073827796       -2.8386267981
 C        -3.1015758639       -3.9057474689       -3.2274333185
 C        -3.5929052441       -3.7256713934       -5.7660476430
 C        -9.8537019965       -0.9850130653       -7.0942384460
 C        -8.1114270357        0.8566161556       -6.6410652516
 C       -12.9138587619        5.2990611734       -3.4734232862
 C       -11.5842857728        4.5947979373       -5.3456247736
 C        -7.5757550718        3.2875534588        1.5337187603
 C        -9.8630000551        2.2217199434        2.0109276480
 C        -8.5948862876        9.4718874961        5.3113376367
 C        -8.4662893633        7.8440846665        7.3231173064
 C       -13.7980272541        8.0593581956        4.2250178932
 C       -15.4301953798        7.7626297226        6.1673942121
 H       -16.8727137873        5.0507037941        4.3568357296
 H       -16.8452907362        5.7964534416        5.8307234556
 H       -16.2644300096        4.2385520424        5.7131312819
 H       -13.4344030135        7.0713829568        8.4301541159
 H       -13.3888854486        8.6123118488        7.4123668242
 H       -11.0778460892        6.8169926715        7.8284543724
 H       -11.4519542250        8.3295269744        8.5688317348
 H        -8.3884607623        5.3311107755        5.6274496676
 H        -7.4356642072        6.9070996659        4.9428199228
 H        -7.3400427412        5.3740191851        2.9516951444
 H        -8.8189748323        6.4044077470        2.7945867548
 H        -8.9873452387        3.4329137896       -0.8467772729
 H        -8.7039144802        5.0067603211       -0.9538133391
 H       -11.3854110924        5.4392444550       -0.9452171058
 H       -11.5392754849        3.7640958253       -1.4292736117
 H       -12.8737076135        2.0907038497       -5.4551467404
 H       -12.4015699471        0.8142832783       -4.0547512728
 H       -10.1628005282        2.5652047665       -5.1898101372
 H       -10.9854390654        1.8783013335       -6.4432252953
 H        -8.4139883854       -3.1418492429       -5.8735397207
 H        -8.1237242046       -2.9894070653       -4.1579500753
 H        -5.8333037949       -2.3496466971       -6.0039345899
 H        -6.2583729112       -3.9618611339       -6.2539486500
 H        -2.6691790857       -1.0924027970       -2.5494415279
 H        -4.2843067361       -1.4521881349       -2.1346861724
 H        -3.9466678743        0.0437624869       -2.9794836523
 H        -3.4413541934       -3.4491455807       -2.2736180084
 H        -2.1126183954       -3.5102683564       -3.3538090052
 H        -3.2126298511       -4.9938431833       -3.1969119090
 H        -3.6330626480       -2.8439753402       -6.2553450508
 H        -4.0414011705       -4.6774896227       -6.1504574598
 H        -2.5526699860       -3.9477307661       -5.6843460679
 H       -10.8190769576       -1.0989101252       -6.5572341641
 H        -9.7433898788       -1.9784931797       -7.5765521572
 H        -9.9472388462       -0.1893538455       -7.9223882969
 H        -8.1992535380        1.7944561788       -6.0216906526
 H        -8.3863936404        1.1174217598       -7.6906880829
 H        -6.9974930172        0.7800178319       -6.6719746355
 H       -13.8062565988        5.1515100748       -4.2057195252
 H       -12.5071103606        6.2680712070       -3.4370706575
 H       -13.3334088699        5.0688070266       -2.4386690660
 H       -10.6351360158        4.4426160655       -5.7576500087
 H       -11.8604719985        5.5477513209       -5.6561446669
 H       -12.1352200931        4.0306722731       -6.0416755711
 H        -7.5014352419        2.7101026780        0.6443333392
 H        -7.1577580332        2.6995500793        2.3910296077
 H        -7.0116238520        4.1929493872        1.4299999191
 H        -9.3447751775        1.5089083090        2.6615542681
 H        -9.9999676397        1.6723523271        1.0089306804
 H       -10.9190606479        2.3534865333        2.1480680707
 H        -8.4416718757       10.3233270585        5.9274906442
 H        -9.1684772675        9.9398685995        4.5172510880
 H        -7.7120447904        9.0938308131        4.8808935590
 H        -8.2390137212        6.7039053045        7.3294422214
 H        -8.9552844890        8.0904060822        8.3037289524
 H        -7.4727418920        8.3355953234        7.3143908434
 H       -14.2830866782        7.8886367588        3.2544891554
 H       -12.7700059329        7.6740747001        4.3763386397
 H       -14.0002793156        9.1301970521        4.4217623793
 H       -16.4476621640        7.6013769822        5.7881509360
 H       -15.1735420290        8.8025482238        6.1611015564
 H       -15.5942740731        7.2810737215        7.1153391407
 Na      -11.9855282516        5.2769377317        3.5689156105
