117

 C       -16.3347565406        5.3570967757        4.9560810761
 C       -14.9284929069        5.9236731908        4.6873976386
 O       -14.2291653659        5.3212284375        3.8710005128
 C       -14.3331115461        7.3909572776        5.3273218944
 C       -13.1527084488        6.9124480604        6.3022223316
 O       -12.3395593038        5.9890626553        5.9785814994
 C       -12.8724740017        7.6812180781        7.5392718785
 C       -11.2910142502        7.8341578822        7.6152813394
 C       -10.7912660346        8.5578523587        6.3694130556
 O       -11.4788601116        9.4732792844        5.8689402034
 C        -9.2025428362        8.3765361191        5.8357215916
 C        -9.3485704192        7.0533490576        4.9215372409
 O       -10.2952717874        7.0301281055        4.1870182983
 C        -8.2880987291        5.9858295587        5.0764958228
 C        -8.0412974103        5.0782624224        3.7578627932
 C        -9.1904640959        4.1217360867        3.3297987410
 O       -10.0283562010        3.9356422150        4.1796528999
 C        -9.2118995449        3.5113343382        1.9242877111
 C       -10.1471381688        4.3759218117        0.9271070082
 O       -11.1763160201        4.9259238189        1.3774038045
 C        -9.6729435973        4.6735984842       -0.5121436228
 C       -10.8636495279        4.6768858008       -1.5661736416
 C       -10.4035715221        4.7529812546       -3.0445984168
 O        -9.3210517448        5.0108868090       -3.5054430842
 C       -11.4681844387        4.5710721393       -4.0450876179
 C       -12.1212974326        2.9965154542       -3.6961531722
 O       -12.6694865947        2.9076055357       -2.6025463630
 C       -12.3426820158        1.7863021936       -4.7791688923
 C       -10.9834936356        1.4245542475       -5.5182556585
 C       -10.3524233504        0.1031787432       -4.9479414906
 O       -10.5402103881       -0.4469377414       -3.8353754379
 C        -9.1729931407       -0.5120677189       -5.8006622630
 C        -8.2145205143       -1.2207968782       -4.7282755761
 O        -7.5341715637       -0.4627836834       -3.9944878127
 C        -7.9652063039       -2.7938978833       -4.6640337646
 C        -6.5955674122       -3.2549485544       -5.3539076741
 C        -5.6074884891       -3.4491875203       -4.1803327661
 O        -6.1108459249       -3.8907581379       -3.1558248877
 C        -4.0947433437       -3.1793216697       -4.3433425696
 C        -3.8992957377       -1.6545217279       -4.2406556912
 O        -3.7555815913       -1.0500787042       -5.2443663150
 C        -3.8305109664       -0.9988971648       -2.8024428080
 C        -3.3838218301       -3.9608884533       -3.1840981878
 C        -3.6110067454       -3.7348979723       -5.6616544072
 C        -9.8473469380       -1.6004307621       -6.8500815692
 C        -8.4015745293        0.5085991111       -6.6137928452
 C       -12.7485869746        5.4104143744       -3.8530802955
 C       -11.1322555253        4.6996849040       -5.5023927478
 C        -7.7807245449        3.1751908054        1.4378807730
 C       -10.0066480589        2.1647929422        2.0174968801
 C        -8.8803260474        9.7124796108        5.0035178364
 C        -8.2991282621        8.0092757621        7.0397094251
 C       -13.6639068511        8.1126161385        3.9490833940
 C       -15.4483537561        8.2611597263        5.8866509690
 H       -16.4961281723        4.2104996357        5.1833387549
 H       -17.0048966126        5.6199018106        4.1288343759
 H       -16.8976467481        5.7662286992        5.8913183667
 H       -13.3844184396        7.1860990836        8.4536932235
 H       -13.3583468026        8.6626517139        7.4187008713
 H       -11.0719461860        6.7434241851        7.8971200651
 H       -11.0175785900        8.5539099638        8.3952775858
 H        -8.7766699798        5.2649008935        5.7350820680
 H        -7.3978681510        6.4332715976        5.4098875540
 H        -7.3004412244        4.3957313079        4.1597937899
 H        -7.6974217446        5.7131859345        2.9499047695
 H        -8.9076379277        4.0111825458       -1.0438787368
 H        -9.0638346650        5.4657579468       -0.4395205246
 H       -11.6106345391        5.4023878480       -1.2995292218
 H       -11.3581385184        3.7162585468       -1.3799780050
 H       -13.1088167210        2.1650305143       -5.3228110188
 H       -12.6915666942        0.9968165192       -4.1327196240
 H       -10.2676323501        2.2920294330       -5.3402813804
 H       -11.0344070589        1.4199795396       -6.6500234359
 H        -8.7879466056       -3.2468431149       -5.3286732119
 H        -7.9354162973       -3.2595615702       -3.6397073413
 H        -6.1421039107       -2.4765724075       -5.8847569752
 H        -6.7344127112       -4.0646683829       -6.0987950500
 H        -2.8546095137       -0.4373119100       -2.6510199992
 H        -3.9214927839       -1.8510771017       -2.1545991649
 H        -4.6330926422       -0.1763189601       -2.5990575187
 H        -4.0510110792       -3.9320151929       -2.3645804923
 H        -2.5104138300       -3.4199881304       -2.7705533916
 H        -3.2692579055       -4.9889187100       -3.4408846070
 H        -4.2794621534       -3.2780573317       -6.3247567887
 H        -3.6971849379       -4.8978456839       -5.5251774410
 H        -2.5676990328       -3.5613756584       -5.9266276241
 H       -10.1215029745       -2.5057623669       -6.3064730933
 H        -9.1371978523       -1.9289008929       -7.5318660893
 H       -10.6717522852       -1.2015024325       -7.3731222595
 H        -7.3729256377        0.5845101212       -6.2489540785
 H        -8.7542786264        1.4741995721       -6.5505743190
 H        -8.3184560221        0.2417561166       -7.6950791281
 H       -13.5560890451        5.1428586475       -4.5754190857
 H       -12.4788122099        6.3794322935       -3.8788448293
 H       -13.1048482099        5.2852607260       -2.8417021078
 H       -10.1866018631        4.2880603180       -5.9566142964
 H       -11.2042515812        5.7483209186       -5.9028612313
 H       -11.7304418028        4.0633478480       -6.1214167043
 H        -7.7504156501        2.3857560483        0.6914463334
 H        -7.2561208303        2.6967583769        2.3228138225
 H        -7.3405781452        4.0778485187        1.0997940018
 H        -9.4168201814        1.5192539810        2.6957115536
 H       -10.4047721540        1.7517540241        1.0517196894
 H       -10.9569734338        2.3239124168        2.5438766273
 H        -8.8554759039       10.6072011426        5.6387399795
 H        -9.7546555692       10.0550587207        4.4203823027
 H        -7.9046493277        9.6115145632        4.4277774451
 H        -8.7760287036        7.3062862950        7.6601508352
 H        -7.8993716528        8.8208503311        7.5044473091
 H        -7.4076407548        7.4958396574        6.7227788112
 H       -13.8988089393        9.1036786035        3.9887078896
 H       -13.7599180443        7.4315408147        3.1566232469
 H       -12.6081244914        8.1181956388        4.1719625601
 H       -15.8751163573        8.8430041558        5.0662871787
 H       -14.9829011823        9.1644999609        6.3430020427
 H       -16.2184760539        7.7608733696        6.4606536598
 Na      -11.7453378756        5.1388162827        3.8274211900
