117

 C       -16.2385844218        5.6574997356        4.9667989573
 C       -14.9172170743        6.0826301427        4.5396355950
 O       -14.1811049214        5.3235593199        3.8741803830
 C       -14.3330476938        7.3562445487        5.1509327787
 C       -13.2221174839        7.0231880913        6.1832518625
 O       -12.3880820485        6.1161164201        5.8651119375
 C       -12.7900346668        7.7983262815        7.4706194115
 C       -11.2765674488        7.8430609224        7.6189609094
 C       -10.7766848593        8.7212654351        6.4159582738
 O       -11.4586704367        9.3711178676        5.7286117271
 C        -9.3276714654        8.3502577282        5.8133936458
 C        -9.2593009280        7.0754640716        4.8568933425
 O       -10.1973490292        6.8375329377        4.0538876945
 C        -8.2494806278        5.7803281908        5.1130349914
 C        -7.9503021209        4.9734598436        3.7517852371
 C        -9.1949347651        4.1710000856        3.3069457682
 O       -10.0371360519        3.7625338321        4.0737629426
 C        -9.2704825547        3.5114461335        1.9349160581
 C       -10.1547572304        4.4456562083        0.9799415206
 O       -11.2516597867        4.8796747942        1.4198080525
 C        -9.6393264591        4.7564805975       -0.3915187192
 C       -10.8055886290        4.8699314399       -1.5029568655
 C       -10.3221618012        4.7284461458       -2.9441677036
 O        -9.2039861264        5.0365571373       -3.2317746768
 C       -11.5796661446        4.4332854922       -4.1389129409
 C       -12.1739800664        3.0501144783       -3.7753504415
 O       -12.7469561846        2.8756132201       -2.7416346748
 C       -12.1964875018        1.8857078859       -4.8110653213
 C       -10.9897693022        1.2997298529       -5.5048158234
 C       -10.4285705167        0.0250534534       -4.9156860533
 O       -10.7249810823       -0.3335997175       -3.8482792981
 C        -9.2228894300       -0.6845410858       -5.7151160503
 C        -8.1991458103       -1.2426565758       -4.7257416497
 O        -7.6565403933       -0.5903466717       -3.9528388115
 C        -7.9098816883       -2.7314545456       -4.6338632790
 C        -6.7188221061       -3.2022652186       -5.3550473796
 C        -5.6210995473       -3.5273627016       -4.1333285228
 O        -6.1281427148       -3.7634966054       -3.0401925971
 C        -4.1905926675       -3.3444756458       -4.3186095344
 C        -3.9127362387       -1.6914743560       -4.1350352836
 O        -3.6696975473       -1.0216147470       -5.1436020261
 C        -3.8849010499       -0.9592526813       -2.8691288316
 C        -3.3014774262       -3.8795656290       -3.1376214263
 C        -3.7280351926       -3.8107461543       -5.7587444601
 C        -9.8418991766       -1.8237030768       -6.6388406964
 C        -8.5411016809        0.4845575268       -6.4931009267
 C       -12.7989234746        5.3296255222       -3.7841732336
 C       -10.8687117553        4.6020738011       -5.4351642648
 C        -7.8788711173        3.1831643977        1.2640627686
 C       -10.0690941909        2.1907449326        2.1667924043
 C        -8.9245991881        9.5652235770        4.9982868724
 C        -8.2740174499        8.3037901051        6.9935261961
 C       -13.5250936496        8.1120459351        4.0261341096
 C       -15.3659443837        8.1799007945        5.7751380228
 H       -16.2009291831        4.7970188878        5.6831874375
 H       -16.7932190263        5.2938902960        4.0528239622
 H       -16.9346231854        6.2408950386        5.4527376887
 H       -13.1569594465        7.0817113246        8.3771008539
 H       -13.2863904676        8.7628763489        7.6260014420
 H       -11.1787875560        6.7103104182        7.5461325079
 H       -11.0189773799        8.1302863537        8.6232549894
 H        -8.9927329602        5.0797548218        5.6812615376
 H        -7.3265316046        6.1422943406        5.5949408629
 H        -7.2088639012        4.1435452171        4.1135095001
 H        -7.6653351005        5.6878848212        3.0228514141
 H        -8.8509907203        4.1507282053       -0.8322515569
 H        -8.9904703724        5.6420233388       -0.2537898854
 H       -11.2000520560        5.8645360321       -1.3735277766
 H       -11.6312410275        4.1987775355       -1.2483841434
 H       -12.7204200195        2.5033806841       -5.5441053325
 H       -12.9589145946        1.2376166079       -4.3810854375
 H       -10.2380987186        2.1337578397       -5.4430777211
 H       -11.1747943062        1.3069192659       -6.5791035907
 H        -8.7387622147       -3.2916092616       -5.0603928193
 H        -7.7063703879       -3.0784510608       -3.5835834240
 H        -6.2208293812       -2.4154791510       -5.9342919280
 H        -6.9238474228       -4.0453874365       -6.0465234483
 H        -3.0330893839       -0.2029882266       -2.8458204533
 H        -3.9513736843       -1.6744179769       -2.0520284118
 H        -4.7523618528       -0.3478372507       -2.8909534899
 H        -3.7529865871       -3.6436590405       -2.1534110831
 H        -2.3727930863       -3.4305152568       -3.1067090280
 H        -3.3075815039       -4.9702886716       -3.2206939051
 H        -4.4676864074       -3.4013998063       -6.4174332284
 H        -3.4979882582       -4.8536559684       -5.8398876242
 H        -2.7767387314       -3.3230958629       -5.9181510859
 H       -10.3285050620       -2.5394847841       -6.0496310581
 H        -9.0546702439       -2.3371977654       -7.2112712269
 H       -10.6132210835       -1.3138477805       -7.3436695281
 H        -7.4542618775        0.3184677917       -6.3710081336
 H        -8.6437074278        1.5264545225       -5.9902797956
 H        -8.7534665234        0.5385382943       -7.5467347876
 H       -13.7344282680        5.1006009911       -4.3486947298
 H       -12.4824668168        6.3846062503       -3.8887041624
 H       -12.9649476785        5.2760912334       -2.7116283127
 H       -10.1415268822        3.8822136481       -5.5738251297
 H       -10.3857110710        5.5138557899       -5.4250523893
 H       -11.2477637255        4.4245739623       -6.3975883275
 H        -7.8680468371        2.2860263002        0.7772380501
 H        -7.3002869175        2.9577691032        2.0736592236
 H        -7.4976925359        4.0490794110        0.6625219246
 H        -9.5389035744        1.6994544346        3.0071642426
 H       -10.2455931192        1.5846413326        1.1785824410
 H       -11.1442663191        2.2816373296        2.5400343124
 H        -9.0234698452       10.4993577325        5.6123119506
 H        -9.6448777915        9.8858376287        4.2153896923
 H        -7.9052186956        9.4320583458        4.7009513762
 H        -8.5158676811        7.5118558293        7.7639505388
 H        -8.0766353132        9.3145358977        7.3279176070
 H        -7.3379978546        8.0456187814        6.6904391336
 H       -13.4818481695        9.0918881361        4.4466690161
 H       -14.0143178859        7.8570815598        3.1202831518
 H       -12.5163683169        7.7816191384        3.9018722004
 H       -15.9954474568        8.6708730017        5.0579431587
 H       -14.9139763393        9.0178626874        6.1053191037
 H       -15.9177399059        7.6702217029        6.6177997662
 Na      -11.7342208739        5.2077325254        3.6989252424
