117

 C        -7.3439641337       10.5107451711       -1.6841507023
 C        -7.7101155193       10.0258210436       -0.2002329981
 O        -8.7731392552        9.6680973314        0.1719031565
 C        -6.3565023519       10.1866452735        0.7876906406
 C        -5.3376866401        9.0396884972        0.3648243152
 O        -4.6730472626        9.1043880487       -0.6449978800
 C        -5.0545872316        7.8576529419        1.3148786425
 C        -4.9548391479        6.4915200550        0.5419949613
 C        -6.3934733975        6.1668490090       -0.1217236089
 O        -7.3372848345        6.8736335631        0.1881317367
 C        -6.5627770771        4.9540795033       -1.1486745556
 C        -6.3998410552        3.6570247376       -0.1914624281
 O        -5.2821558413        3.2879292815        0.0014394811
 C        -7.5722801777        2.9006504453        0.3879961068
 C        -7.0172684398        1.8778081756        1.4633430853
 C        -7.9061662561        0.7069968406        1.8431018313
 O        -8.7038748669        0.3314830443        1.0157409541
 C        -7.7690171177       -0.0106826290        3.2019473026
 C        -8.8878223756        0.6515079873        4.1292327061
 O        -8.6339880065        1.5750381763        4.8456699343
 C       -10.3533037774        0.0984808520        3.8819977757
 C       -11.4610258206        1.1279515665        4.0471447057
 C       -11.2788682659        2.2848426775        3.0433135307
 O       -10.3109025674        2.0879579475        2.3178835198
 C       -12.3248412584        3.3305053609        2.8080962905
 C       -13.1357049913        2.8466865799        1.5836985207
 O       -12.5770077955        2.3288434348        0.6395076453
 C       -14.6222743461        2.9962792766        1.4337098210
 C       -15.1150076086        2.8966330538        0.0209692470
 C       -14.4693103840        3.7562447275       -1.1236633536
 O       -13.7074617824        4.7074099433       -0.9529242404
 C       -14.9352954749        3.4972644750       -2.5932180296
 C       -13.6684583576        3.0239910687       -3.4892472172
 O       -13.7928281129        2.1012271046       -4.3389316014
 C       -12.2849926955        3.7091619173       -3.3498314476
 C       -11.2015704698        3.0269372581       -4.1474541164
 C       -10.4258137937        1.8563445856       -3.1772138129
 O        -9.6254444666        2.2251005702       -2.3314485623
 C       -10.6067309144        0.3091724932       -3.3922516672
 C       -11.5192214600       -0.1847428793       -2.2462013781
 O       -11.1252090767       -0.0599361902       -1.0767350748
 C       -12.7940980646       -0.9274960561       -2.6482309614
 C       -11.1230139932        0.0226838286       -4.8496725437
 C        -9.2272211979       -0.4228712275       -3.1687166023
 C       -15.9556455542        2.4196525968       -2.7418162914
 C       -15.5034310458        4.7897501769       -3.2138602330
 C       -13.2119244994        3.4242234659        4.0480210148
 C       -11.6414220184        4.6692213966        2.5337229265
 C        -7.9607073468       -1.5303950850        3.0101699015
 C        -6.3878598382        0.1431695738        3.8599642274
 C        -7.8484967049        5.0927799886       -2.0288538570
 C        -5.2572488783        5.0254016056       -2.0990111162
 C        -5.6357729989       11.5563664267        0.6029985048
 C        -6.8301245002       10.1204123491        2.1819467245
 H        -7.9276661096       11.4679989158       -1.9552905627
 H        -7.6385297528        9.8525648537       -2.4871666359
 H        -6.2449422073       10.6630864762       -1.7769920733
 H        -5.8484263639        7.7602404479        1.9570421761
 H        -4.1159437830        7.9885703803        1.7658081167
 H        -4.7023648929        5.7940203870        1.3633752657
 H        -4.1760188066        6.6632826961       -0.2376502476
 H        -8.0239125792        2.2934815330       -0.4451917494
 H        -8.3726153099        3.5000571480        0.8762758792
 H        -6.7307713128        2.4448319425        2.3293455232
 H        -6.0122963165        1.5778509565        1.0009894837
 H       -10.4920809451       -0.6449495692        4.7144755039
 H       -10.4933410320       -0.3139753878        2.9158511823
 H       -11.3082041282        1.4949416359        5.0305391649
 H       -12.4082264311        0.5791794747        3.9236225555
 H       -14.6429962223        4.0549515749        1.7654807662
 H       -15.2447769142        2.3328338894        2.0728289064
 H       -16.1659685253        2.9598042966        0.0553348994
 H       -15.0036215644        1.8854407359       -0.3416836031
 H       -12.1668676509        3.7388858756       -2.2229096200
 H       -12.3034048363        4.7680170423       -3.5420342448
 H       -10.5280895636        3.7941838970       -4.4472271405
 H       -11.5953900297        2.6109139258       -5.0118200995
 H       -12.9458094756       -1.4533555021       -1.7333511276
 H       -12.4973790923       -1.6321528025       -3.5113322407
 H       -13.7646360112       -0.3802409777       -2.7548514394
 H       -10.3347719821        0.2703750848       -5.5059129161
 H       -11.8980036417        0.7997929946       -5.1398425639
 H       -11.3596350842       -1.0974350894       -4.9287739059
 H        -8.8940157055       -0.2699369245       -2.2032427360
 H        -8.4852674954        0.0628463748       -3.9066469939
 H        -9.3145871284       -1.4618973573       -3.4333914731
 H       -15.4197206589        1.4864310252       -2.7079120852
 H       -16.5301827632        2.3563441589       -3.5951420847
 H       -16.6051930857        2.4667642633       -1.8977126919
 H       -15.5820567176        4.6182622713       -4.2634262323
 H       -14.8665007038        5.6741037278       -3.0239993446
 H       -16.4562263676        5.0340956274       -2.9165892927
 H       -12.5969544913        3.7201462505        4.8508873710
 H       -13.6529602954        2.4962395372        4.1988627108
 H       -14.0978499605        4.0829470945        4.0069507200
 H       -11.4268111464        5.1021532904        3.4816683260
 H       -12.2890037013        5.2839955416        1.8928256409
 H       -10.6949792119        4.5066546223        2.0975153862
 H        -8.0110342651       -1.9989465795        3.9910213706
 H        -7.1055726655       -2.0885070254        2.4862277754
 H        -8.8357691051       -1.7146585272        2.5295788153
 H        -5.5198693102       -0.0657208992        3.2012432859
 H        -6.4231081494       -0.4839376224        4.7868095793
 H        -6.2784528896        1.1780999010        4.0378486115
 H        -8.7369894002        4.9657008133       -1.4121762868
 H        -7.6556928119        4.4975023830       -2.8475087260
 H        -7.8294038930        6.1080623604       -2.4403379715
 H        -5.2665713153        5.9981908686       -2.6298592019
 H        -5.1802452092        4.2346572405       -2.8293631664
 H        -4.2310100246        4.9933123635       -1.6482095160
 H        -4.8165852208       11.5069296854       -0.1222866959
 H        -5.3937054832       11.8425416449        1.6215450081
 H        -6.2820785998       12.2258708897        0.0170757338
 H        -7.5174954664        9.3280817663        2.4161723359
 H        -7.2911615591       11.0272351233        2.5549222257
 H        -5.9266449062        9.9195428042        2.7440832302
 Na      -10.2942613951        1.9105418919       -0.0978251621
