117

 C       -16.3339336125        5.8741259429        4.7286435917
 C       -14.8371020760        6.2326859436        4.4032366292
 O       -14.1888464734        5.4294998586        3.6590059378
 C       -14.1746251012        7.5683460458        4.9042445143
 C       -12.9450985584        7.0586871630        5.9010562227
 O       -12.1961578848        6.0743817056        5.5618582584
 C       -12.6959773979        7.8173645669        7.2245150946
 C       -11.1641989959        7.9626650664        7.3728417984
 C       -10.6720520011        8.6214096888        6.0922684059
 O       -11.3396510157        9.4549956770        5.5353893454
 C        -9.1502029064        8.2996466654        5.6208462054
 C        -9.2326367351        6.8461234283        4.8693349681
 O        -9.9358493453        6.7136738783        3.8766967568
 C        -8.1773702139        5.7770320849        5.1445829323
 C        -7.9901042242        4.9032807206        3.7584496186
 C        -9.2644124828        4.0880606460        3.4017819053
 O       -10.1408861573        3.8462744726        4.2158925968
 C        -9.3878859170        3.5517629570        1.9704390246
 C       -10.2170432342        4.5372099958        1.1735432183
 O       -11.3810162110        4.8767602545        1.6015733003
 C        -9.7803350184        4.7822806537       -0.2356695480
 C       -10.9376240154        5.1092058614       -1.2329605115
 C       -10.4676225260        4.7306752450       -2.6213631923
 O        -9.2986619628        4.6790967596       -2.8131635487
 C       -11.3714227041        4.5146305354       -3.8983196875
 C       -12.1335562077        3.0599528233       -3.7675307678
 O       -12.5518023053        2.7121353594       -2.6971014386
 C       -12.3074205135        2.1537611184       -5.1036537250
 C       -11.0453613948        1.3784355687       -5.6967131682
 C       -10.5555139923        0.1204582907       -4.8707478373
 O       -11.1193900398       -0.3559156069       -3.9591083284
 C        -9.4408386157       -0.7999042088       -5.5702529472
 C        -8.4396202626       -1.4821719400       -4.3494919765
 O        -7.8182417999       -0.7019502443       -3.6937696964
 C        -8.0813862115       -2.9145697169       -4.1018313669
 C        -6.7296962397       -3.2452218930       -4.7802025848
 C        -5.5569239402       -3.4698410875       -3.7453970867
 O        -5.7873958429       -3.6751808486       -2.5453151022
 C        -4.0378824119       -3.3207109732       -4.2699916778
 C        -3.9351495100       -1.6878755220       -4.1490244196
 O        -3.4749005120       -1.1292560610       -5.1608635085
 C        -4.3793646457       -0.8731304247       -3.0062494644
 C        -3.2162929127       -4.0754749209       -3.2302702639
 C        -3.9304732165       -3.7798907717       -5.8333782495
 C       -10.4680312805       -1.8591854625       -6.3721331198
 C        -8.3637172886       -0.0257833226       -6.4393268490
 C       -12.4785045818        5.5644917267       -3.9846267628
 C       -10.3877748171        4.5175033663       -5.1251652968
 C        -7.9064507205        3.2630100396        1.5544350392
 C       -10.1539477535        2.1537906392        1.9050862626
 C        -8.7782026336        9.3365102892        4.5059306872
 C        -8.1315856651        8.2619776058        6.8774664098
 C       -13.5458427966        8.3169789494        3.5464613814
 C       -15.0716865592        8.4427244587        5.7149578654
 H       -16.9983933052        6.7592481093        4.4590585721
 H       -16.7111361662        5.3585779195        5.7137279434
 H       -16.8101855843        5.1395401589        4.0774316806
 H       -13.1037301940        7.0239667786        7.9922783433
 H       -13.2139715984        8.6959871431        7.4394732695
 H       -10.7732712346        6.8800831459        7.5503107010
 H       -11.0230980821        8.5717799122        8.2365163386
 H        -8.6315255041        5.1074524847        5.8366943483
 H        -7.2752336709        6.1957349731        5.3455674407
 H        -7.2676723513        4.2399730432        4.1423894133
 H        -7.7676656702        5.6057010244        3.0483159903
 H        -9.1410558727        4.0729705296       -0.8484667346
 H        -9.2035838016        5.6062150611       -0.3457251533
 H       -11.1195679887        6.1865718572       -1.2454517860
 H       -11.8870119462        4.6232043417       -0.9218065543
 H       -12.7453853201        2.8474422727       -5.7232188406
 H       -13.1635215292        1.5235060304       -4.9041078620
 H       -10.1583329336        2.0635688168       -5.8882757584
 H       -11.3383172114        1.0897423677       -6.7229991618
 H        -8.7813289824       -3.5680639759       -4.6909875535
 H        -8.1792936185       -3.0775836983       -3.0147468019
 H        -6.4555615222       -2.3904187288       -5.3033774374
 H        -6.6921243565       -4.1408748053       -5.4405409706
 H        -3.9503727265        0.2071759448       -2.9922669993
 H        -4.0910170010       -1.4703860520       -2.1473682028
 H        -5.4918415503       -0.8262854656       -2.9542241247
 H        -3.3632833173       -3.5010332911       -2.2944621325
 H        -2.1472355371       -3.9777876926       -3.4507515111
 H        -3.4535734997       -5.1551046454       -3.0580709888
 H        -4.5198054960       -3.1891172266       -6.5354636151
 H        -4.3931567809       -4.8327719603       -5.9038150104
 H        -2.8181920463       -3.8514593364       -6.0978008559
 H       -10.9628578340       -2.3977267802       -5.6285909760
 H        -9.9726247099       -2.4957083671       -7.0450883263
 H       -11.2593955805       -1.3088077505       -6.9076459909
 H        -8.7156735584        0.1053602666       -7.4580837658
 H        -7.3661254964       -0.5044352199       -6.4934230390
 H        -8.3253565444        0.9315126179       -5.9599282185
 H       -12.9794672619        5.4512949503       -4.9793173894
 H       -12.2392491937        6.5670740756       -3.8672064377
 H       -13.1350847772        5.2196903262       -3.1944913293
 H        -9.3950445677        3.9856001230       -5.1349323504
 H       -10.1207408298        5.5024843847       -5.6261402495
 H       -10.7331814950        3.8342543217       -5.9643678253
 H        -7.9256037575        3.0758086371        0.4733440635
 H        -7.7222597770        2.2860440607        2.0324182905
 H        -7.2256893613        4.1448930584        1.7677178561
 H        -9.6498409269        1.4981610501        2.5321709191
 H        -9.9980105571        1.8101332375        0.8432778494
 H       -11.1349256026        2.1055997654        2.2805463447
 H        -8.7412821196       10.3656461960        4.8911846659
 H        -9.6000625850        9.2177273296        3.7490667744
 H        -7.7842242699        9.1885032803        4.0785568684
 H        -8.1602933714        7.1981821334        7.2419093476
 H        -8.4492112360        8.9444930444        7.6274715354
 H        -7.1509108670        8.4958769790        6.7205242869
 H       -12.4576026950        8.4666848987        3.6416931698
 H       -14.1855670872        9.1665050218        3.2025800252
 H       -13.7885353638        7.4979565775        2.8571201664
 H       -15.8235643255        8.8749343692        5.0057461750
 H       -14.5945199370        9.3386973698        6.0993099382
 H       -15.4758677657        8.0123835247        6.6885708804
 Na      -11.9343346388        5.4048032350        3.5200432061
