117

 C       -16.4900862683        6.2885760625        4.6003890149
 C       -14.8890520813        6.3836995728        4.3371271109
 O       -14.3426993473        5.4910420058        3.6720194954
 C       -14.1172226263        7.7064796168        4.7764862100
 C       -13.0107959549        7.1564997779        5.7636080016
 O       -12.6333382682        6.0048222534        5.6375874434
 C       -12.4564350568        8.2607112904        6.8196769423
 C       -10.9612958305        8.1368254978        7.0540753004
 C       -10.3250378488        8.8835022188        5.8621564984
 O       -10.9033732754        9.6173720123        5.1283384680
 C        -8.8812240272        8.3988780328        5.4826674182
 C        -9.0171631899        6.9930660532        4.6138393989
 O        -9.6923441232        7.1695692891        3.6207727282
 C        -8.3884836458        5.7067117353        5.0785125223
 C        -8.1533981911        4.5860630509        4.0485472526
 C        -9.4481638992        3.9540873884        3.5464271850
 O       -10.4551744524        3.9250962830        4.2000602425
 C        -9.5188771607        3.3722024806        2.1075126222
 C       -10.2996493744        4.4797302901        1.0832857100
 O       -11.4074064314        4.9591088156        1.3150004371
 C        -9.6073372194        4.8444324078       -0.2573020793
 C       -10.5679200885        4.7762573385       -1.4316768897
 C        -9.9690654383        4.5038174992       -2.7866185168
 O        -8.8121876089        4.2457427770       -3.1281520885
 C       -11.0602818044        4.5687964977       -3.9594656900
 C       -11.8119042326        3.1264832485       -4.0001195282
 O       -12.0267982632        2.5895138998       -2.9368764842
 C       -11.9459787710        2.2299212274       -5.2055914483
 C       -10.6448544263        1.3645245507       -5.3445301374
 C       -10.6073757224       -0.0473033198       -4.7006648054
 O       -11.3196651531       -0.4848826032       -3.8498516598
 C        -9.5781437627       -1.1130934874       -5.2748156097
 C        -8.7435303939       -1.3785011522       -3.9705301686
 O        -8.3994987770       -0.4749767724       -3.2976109462
 C        -8.2484976587       -2.8858977126       -3.4893194090
 C        -7.1725208945       -3.3673165178       -4.4342870798
 C        -5.8273736025       -3.4195674855       -3.5839658410
 O        -5.8520953772       -3.5996830751       -2.3913839526
 C        -4.4799607575       -3.2627209797       -4.1728454779
 C        -4.0869735072       -1.5568834141       -4.2700289559
 O        -3.2082593555       -1.3065715315       -5.0575474775
 C        -4.6519529139       -0.6127433503       -3.2576919877
 C        -3.4431997927       -3.8460340038       -3.2144277260
 C        -4.3733895971       -3.8201016139       -5.5326210934
 C       -10.4260561117       -2.2910940607       -5.5956445748
 C        -8.6742801642       -0.5904718567       -6.4188843449
 C       -12.3446291603        5.5455866159       -3.6348488213
 C       -10.3579369937        4.8264488934       -5.3345377529
 C        -8.0427023323        3.0797260458        1.4915102014
 C       -10.2642340269        2.1153207021        2.0959602552
 C        -8.2704817308        9.3272224594        4.4734885029
 C        -7.9674161837        8.3768689888        6.6078575354
 C       -13.2597773045        8.2001423033        3.5525103994
 C       -15.0309204243        8.7636842630        5.3903674046
 H       -16.7827608675        5.2975287649        4.9111321125
 H       -17.1457209496        6.4035823053        3.6583682572
 H       -17.0874883643        6.9187469596        5.3039236435
 H       -12.9878779240        8.1083567419        7.7419527352
 H       -12.7261956751        9.2914061278        6.4661181258
 H       -10.7365434639        7.0363125749        7.1939698110
 H       -10.5710617306        8.5950684316        7.9302126899
 H        -9.0734766603        5.3143102087        5.8332155476
 H        -7.4972733257        6.0488691996        5.4552812835
 H        -7.5824426962        3.7473812954        4.5197952448
 H        -7.6357047037        5.1496991767        3.3779066575
 H        -8.7991277739        4.2020346525       -0.5468516921
 H        -9.3370828364        5.8560795859       -0.3828104874
 H       -11.1475066156        5.7163883629       -1.4053575865
 H       -11.3586484643        3.9909875421       -1.2655627265
 H       -12.2025651122        2.7945058785       -6.0787591750
 H       -12.9244712207        1.7190825197       -5.0982370881
 H        -9.6915644178        1.8721566142       -5.1318540710
 H       -10.7462214941        1.2590228354       -6.3879809727
 H        -9.0101672772       -3.6676944525       -3.4489890644
 H        -7.7764716204       -2.8936868991       -2.5136555526
 H        -6.9320743811       -2.5859364612       -5.1043934624
 H        -7.4123403899       -4.3652317449       -4.9148525694
 H        -3.9625992046        0.2370073313       -3.2353815530
 H        -4.5971307728       -1.2035160887       -2.2978682215
 H        -5.6561221430       -0.3601557674       -3.3598436756
 H        -3.7310385489       -3.4940230531       -2.1877346899
 H        -2.4822724225       -3.5607205931       -3.5208515581
 H        -3.3620103466       -4.9443099637       -3.0805962980
 H        -5.2614476903       -3.5258315768       -6.1779841406
 H        -4.5807758334       -4.8553130703       -5.4645359057
 H        -3.4848920217       -3.4796260277       -6.1829494980
 H       -10.9961203149       -2.5412647237       -4.7430690966
 H        -9.6921494927       -3.0804970382       -5.8875281165
 H       -11.1001275243       -2.0712746106       -6.5368601607
 H        -7.7495596633       -0.2407054926       -6.0314163240
 H        -9.2931177266        0.2686271566       -6.8749410565
 H        -8.5812170082       -1.3528932214       -7.1471586471
 H       -13.1877794966        5.3366298190       -4.3519709468
 H       -12.1780320630        6.6435371104       -3.7023830045
 H       -12.7685977367        5.2978704299       -2.6785423619
 H        -9.5299937552        4.1451532446       -5.5926448135
 H        -9.6905408694        5.6772605488       -5.4964097591
 H       -10.9025853945        4.9145800372       -6.3413036681
 H        -8.1652714741        2.8078521470        0.4328357774
 H        -7.7363579502        2.3538450415        2.2084142375
 H        -7.2652445777        3.9497169746        1.7211273642
 H        -9.7832575641        1.4232385660        2.7025840428
 H       -10.3509231956        1.5864374980        1.1518481463
 H       -11.1435184297        2.3528046866        2.6154151287
 H        -7.8944114525       10.1893610203        4.9874149991
 H        -8.8402321190        9.5446672103        3.5958988238
 H        -7.4354158992        8.8130092765        4.1329796925
 H        -8.0695096548        7.4755481081        7.3108566138
 H        -8.1527898733        9.2232275303        7.3090517565
 H        -6.9743401438        8.3619830702        6.2271472376
 H       -13.0912842642        9.3042663467        3.5720474122
 H       -13.7292576177        8.0687432402        2.5543952769
 H       -12.4397291095        7.5098364084        3.7530644176
 H       -15.9797680708        8.8414068893        4.8836784189
 H       -14.4573329747        9.5927198303        5.4944004390
 H       -15.2669530871        8.7001686033        6.4940494523
 Na      -12.3440376938        4.9625453891        3.5017196866
