117

 C       -16.3650838884        6.4422373528        4.5972859826
 C       -14.9535627804        6.4812920811        4.2912522394
 O       -14.5026827567        5.5793150158        3.7247049929
 C       -14.0657651841        7.7037900901        4.7440462752
 C       -13.0735835969        7.1860373705        5.7793490812
 O       -12.6689286482        6.0656972628        5.8631528546
 C       -12.5656660536        8.2835697433        6.7331031637
 C       -11.0223813506        8.2182361489        6.8979480106
 C       -10.2663774231        8.9058577815        5.7403148940
 O       -10.8324755946        9.7602996989        5.0795612073
 C        -8.7479904774        8.4066114647        5.3870914197
 C        -8.9597535509        7.0522140409        4.6469400647
 O        -9.4404114806        6.9423514364        3.5103655696
 C        -8.4617034174        5.6642766095        5.1899353734
 C        -8.2675608418        4.7585941099        3.9629842426
 C        -9.5887488984        4.1427674294        3.5182346754
 O       -10.5433763910        3.9768325681        4.2053305681
 C        -9.5404859616        3.3607310126        2.0386236000
 C       -10.0922235769        4.4025552013        0.9873363692
 O       -11.1918791246        4.7930678766        1.2641609951
 C        -9.3851706337        4.8408380064       -0.2592769987
 C       -10.4727163096        4.8095077969       -1.4536850335
 C       -10.0310598349        4.5522055262       -2.9070526598
 O        -8.8214145284        4.3233363265       -3.0673949016
 C       -11.0924019436        4.5118684954       -4.0189912990
 C       -11.6415096762        2.9913369721       -3.9532269756
 O       -12.1213384822        2.5900124662       -2.9124750160
 C       -11.7548938458        2.2374515879       -5.3202833371
 C       -10.5312111479        1.2397006115       -5.4497468099
 C       -10.6504437395       -0.1318638302       -4.7132899919
 O       -11.5299144454       -0.4143294678       -3.8307952533
 C        -9.6161608770       -1.2200549301       -5.1479336543
 C        -8.7818920432       -1.3274339262       -3.9076466985
 O        -8.3979998166       -0.4182758373       -3.2272100468
 C        -8.3451264475       -2.7518142887       -3.3717305263
 C        -7.2476168691       -3.2883423786       -4.2689243412
 C        -5.8466564462       -3.3357422955       -3.4330827782
 O        -5.9880432807       -3.5885258209       -2.2702732722
 C        -4.4855064685       -3.1368797169       -4.1778687921
 C        -4.0833071864       -1.6770293114       -4.2924547695
 O        -3.2698572112       -1.3214365020       -5.1156047139
 C        -4.7324962086       -0.5673090214       -3.2657131601
 C        -3.5164873990       -3.8668883709       -3.2122081871
 C        -4.3504898357       -3.8079557273       -5.6366600782
 C       -10.5316908767       -2.4991744324       -5.4989237949
 C        -8.5099592954       -0.8194377483       -6.3074244904
 C       -12.1759577469        5.4999359339       -3.5873096666
 C       -10.4706133919        4.8251833283       -5.2994082390
 C        -8.0833165879        2.9168358718        1.6285319448
 C       -10.4161411329        2.1019921610        1.9406797562
 C        -8.1368547054        9.4442940425        4.3153001990
 C        -7.8599436679        8.3316345465        6.8114818416
 C       -13.2897326089        8.1685644457        3.4074369896
 C       -14.9722224887        8.7847169305        5.3095977512
 H       -16.6492746225        5.7540004861        5.4983094621
 H       -16.9426751082        6.0082220003        3.8219316873
 H       -16.9254679402        7.4308893099        4.8258807065
 H       -13.0792460720        8.1448452084        7.7498749719
 H       -12.8472754526        9.4042005685        6.3828759489
 H       -10.5949704815        7.2682090112        7.2629228005
 H       -10.6929752383        8.9838320870        7.7242820095
 H        -9.1021161197        5.1800805835        5.8343011557
 H        -7.5062075399        5.9060444551        5.6545323091
 H        -7.5795348275        3.9303465837        4.1531455459
 H        -7.8419688770        5.4807222615        3.2887136505
 H        -8.6580217041        4.2074608744       -0.5321706702
 H        -9.0802210858        5.9329548385       -0.2566874449
 H       -10.9958585148        5.7745323649       -1.3251362985
 H       -11.2637644692        4.1096450989       -1.1784599989
 H       -11.8805357034        2.9591879035       -6.0891895999
 H       -12.6967667351        1.8513619507       -5.3418426378
 H        -9.5564773326        1.6963185242       -5.0906941983
 H       -10.5345990772        1.1026840454       -6.5592026644
 H        -9.1748205975       -3.4094569704       -3.5777640380
 H        -8.0251680917       -2.9699984957       -2.2982272147
 H        -7.1306983976       -2.7372882824       -5.1816920813
 H        -7.5009891413       -4.3063973038       -4.4449773289
 H        -4.0031704772        0.2201183765       -3.3287028673
 H        -5.1576347966       -0.8013323010       -2.2137377155
 H        -5.5822192995       -0.1809716517       -3.8830769684
 H        -3.6999058637       -3.4607634853       -2.1971192854
 H        -2.4953601058       -3.9908456463       -3.4999768363
 H        -3.8953703948       -4.8980835235       -3.0484860931
 H        -5.3012167036       -3.8042250886       -6.3270303402
 H        -4.1279467282       -4.8664001164       -5.5559789695
 H        -3.6364233215       -3.1788346057       -6.2150739308
 H       -11.0741579579       -2.8258211674       -4.6029856687
 H        -9.9554216908       -3.2896929169       -5.9324820543
 H       -11.2007316357       -2.1463969126       -6.2019591519
 H        -7.5485163641       -1.1819218952       -6.0401025812
 H        -8.5349187636        0.2334312277       -6.5751940540
 H        -8.9477137009       -1.3928825134       -7.0885102553
 H       -12.8408612922        5.7034860052       -4.3336886876
 H       -11.7462515293        6.5183667093       -3.2932252121
 H       -12.7595716612        5.1065320405       -2.7998307301
 H        -9.4999521408        4.2414796631       -5.3660969917
 H        -9.8991105812        5.7876469570       -5.5264673384
 H       -10.8792678449        4.7523686529       -6.3478227832
 H        -8.1558410664        2.6165121822        0.5386093165
 H        -7.9349380930        2.1477732568        2.3757449763
 H        -7.2801750419        3.5977657720        1.8788083601
 H       -10.1520123016        1.4588068902        2.7773140555
 H       -10.2702302469        1.5071663733        1.1415490154
 H       -11.3964960879        2.5062505861        2.1543657953
 H        -8.1960517062       10.4139936013        4.8353038193
 H        -8.6473078279        9.4274849548        3.3624761849
 H        -7.1090785986        9.2026500744        4.0601456043
 H        -8.0969150476        7.6234912226        7.4667833252
 H        -7.9690409763        9.2227832663        7.3774354102
 H        -6.8098082879        8.2095339700        6.4990041718
 H       -13.4020617163        9.2579596699        3.4829717625
 H       -13.9656597717        8.0832939347        2.5515221605
 H       -12.3314468066        7.6842139317        3.3043093962
 H       -15.8129467200        9.0310832622        4.6597767582
 H       -14.3771575824        9.6307207093        5.7609903394
 H       -15.4731045390        8.4573353310        6.2334159676
 Na      -12.4056614492        4.7931336033        3.5294803290
