117

 C       -16.5421631149        6.5245996294        4.6520997635
 C       -15.1614927126        6.4738940969        4.1861937859
 O       -14.5470914388        5.5123748107        3.6545541851
 C       -14.1592416188        7.7661766871        4.6429972547
 C       -12.9792015870        7.3090912527        5.8124242709
 O       -12.6357594230        6.0955550269        5.9481133030
 C       -12.4792399759        8.3243608156        6.7715087140
 C       -10.9348722929        8.3083401404        6.8913385218
 C       -10.1736464811        8.9278603895        5.6448476593
 O       -10.6505617132        9.8379362791        4.9919393652
 C        -8.7570220830        8.4211201627        5.2938529351
 C        -8.8124646286        7.1211081411        4.6268307286
 O        -9.3029383755        7.0346793859        3.5262504195
 C        -8.4633730952        5.6755523750        5.2452746766
 C        -8.2873188823        4.6955839625        3.9850705132
 C        -9.4757559840        4.0170323609        3.4220320336
 O       -10.5203207206        4.0593381493        4.1518507859
 C        -9.5026705665        3.3068593658        2.0462070560
 C       -10.0226172287        4.3850074102        0.9534443943
 O       -11.1292340109        4.8059237312        1.2664663628
 C        -9.3153614531        4.7562825153       -0.3119829883
 C       -10.4616915358        4.8792851748       -1.3572555458
 C        -9.8956838378        4.5502885077       -2.8183333624
 O        -8.7615100047        4.3911027433       -3.1050848216
 C       -11.0013843993        4.4208480339       -3.9416934140
 C       -11.6562999126        3.0086991874       -3.9127540113
 O       -12.1815718884        2.5922652339       -2.9070203708
 C       -11.6171873272        2.1102945117       -5.2832209311
 C       -10.4869806470        1.1314182431       -5.5200507799
 C       -10.7237724140       -0.1527942566       -4.8299981765
 O       -11.6106718293       -0.2053554901       -4.0193268127
 C        -9.7181096092       -1.2735202547       -5.0380398326
 C        -8.8140892736       -1.3344882590       -3.6819896235
 O        -8.3639352127       -0.2727848626       -3.2013178392
 C        -8.4744558177       -2.7896201972       -3.2608392685
 C        -7.2804572896       -3.3807221908       -4.1905864902
 C        -5.9503799679       -3.3708370516       -3.3696056598
 O        -6.0212771612       -3.4938406038       -2.1455161943
 C        -4.5702944660       -3.1745164320       -4.0460720343
 C        -4.0837023099       -1.6450901682       -4.2979218701
 O        -3.3234304700       -1.2660409417       -5.1492664836
 C        -4.7761136591       -0.6415887557       -3.3931183286
 C        -3.4283686308       -3.8974933100       -3.2328036733
 C        -4.4430765141       -3.7769422106       -5.5228400852
 C       -10.4255374273       -2.5933420444       -5.4375288411
 C        -8.6814898084       -1.0599925546       -6.1340492028
 C       -12.1578941774        5.4741288016       -3.6931257745
 C       -10.4508472429        4.9201881286       -5.2847282403
 C        -8.0064760222        2.7268007317        1.7907638401
 C       -10.6098676271        2.1849047216        1.9195591712
 C        -8.0876446621        9.4306933416        4.4019791640
 C        -8.0007042564        8.2941375236        6.5904959238
 C       -13.3269369188        8.1894774886        3.3534654807
 C       -14.9620268828        8.9451108366        5.1506295528
 H       -16.6989550071        6.5721295942        5.7555163192
 H       -17.1976417829        5.6745769053        4.3911855449
 H       -16.9674802931        7.3863883282        4.2641478352
 H       -12.9844560917        8.1457852631        7.8216499548
 H       -12.7956264940        9.2974275133        6.4730621626
 H       -10.5442349806        7.2726252253        6.9016888945
 H       -10.5263362030        8.7142524192        7.8794539021
 H        -9.3362888541        5.2587892346        5.7728027369
 H        -7.5594153676        5.5860581587        5.9574298371
 H        -7.6064600446        3.9023158288        4.2865220210
 H        -7.7513927926        5.3604491821        3.1834345587
 H        -8.6824425441        3.8471662141       -0.7503005161
 H        -8.7976241579        5.7266226244       -0.0968079765
 H       -11.0108174255        5.7887156811       -1.1601598389
 H       -11.2010946799        4.1535539782       -1.0729763346
 H       -11.7565823408        2.8192990743       -6.0795228911
 H       -12.5886308477        1.6500800582       -5.2533935325
 H        -9.5110889742        1.5061985110       -5.1461350627
 H       -10.4879628154        1.0863667443       -6.6596059678
 H        -9.4255137648       -3.3432709756       -3.4311028468
 H        -8.1269293835       -3.0733786927       -2.2145807966
 H        -7.0506112976       -2.8708190051       -5.1682169064
 H        -7.4080082895       -4.4087965490       -4.3655729501
 H        -4.0996673953        0.2266494727       -3.1585533272
 H        -5.2576038255       -1.1254667745       -2.5764052476
 H        -5.6313660227       -0.2831309171       -4.0991554887
 H        -3.2243998291       -3.4459927915       -2.3021828328
 H        -2.5019662902       -4.0631510506       -3.8811495350
 H        -3.7250073938       -4.8817525869       -2.9343537120
 H        -5.3014486655       -3.7632720657       -6.1351828177
 H        -4.0363733887       -4.8596857125       -5.6032848103
 H        -3.8339572145       -3.0593008857       -5.9944686716
 H       -11.0336917484       -2.9332114059       -4.6024637103
 H        -9.7535243250       -3.3236758546       -5.7500736100
 H       -11.0405442932       -2.2952554242       -6.2041809563
 H        -8.0692109652       -1.9974808106       -6.1046002861
 H        -8.1797215690       -0.1909212896       -5.9790714096
 H        -9.2958626071       -1.0721313153       -7.0716104085
 H       -12.6434316879        5.7534945509       -4.6255510912
 H       -11.8241511803        6.3645224955       -3.2663055079
 H       -13.0107148973        5.1222237293       -3.0987288057
 H        -9.5589215853        4.5817409855       -5.8268799485
 H       -10.1385219978        5.9589135196       -5.3500795799
 H       -11.1540731503        4.9180764577       -6.0594494282
 H        -8.1388602671        2.1659180154        0.8921286243
 H        -7.7125001178        2.2354240020        2.7273239692
 H        -7.2877845180        3.4431765745        1.7311798269
 H       -10.5508635940        1.4934581494        2.7949593578
 H       -10.2991376680        1.4776362918        1.1100401267
 H       -11.5922136913        2.6769835540        1.8297255560
 H        -8.4544789190       10.4093812657        4.7256028952
 H        -8.4391240843        9.1811286535        3.3821039002
 H        -6.9495101185        9.3632822062        4.2750992927
 H        -8.5312932263        7.6578497381        7.2766395400
 H        -7.9116535001        9.1827940310        7.1063676552
 H        -7.0284575242        7.9090070486        6.3871889913
 H       -13.2329436205        9.2209313383        3.5066972209
 H       -14.0225233045        8.3392231471        2.5608950734
 H       -12.4807921599        7.5736998397        3.1230348504
 H       -15.6938494611        9.3238245848        4.4107177313
 H       -14.2990956127        9.7420178579        5.6321186850
 H       -15.6417610055        8.6731197190        5.9560827719
 Na      -12.4437409009        4.6847626487        3.4932814675
