117

 C       -16.5500753451        6.6121525882        4.6275203262
 C       -15.0679412957        6.5156797385        4.3446568023
 O       -14.7607516578        5.5334317681        3.6289453656
 C       -14.1477224768        7.8050701880        4.6653230576
 C       -13.0845280190        7.3926944288        5.7566170231
 O       -12.6879244439        6.2270011996        5.7011959942
 C       -12.3835105634        8.4194112086        6.7125194478
 C       -10.8921166301        8.3060133860        6.7592853743
 C       -10.1466204352        8.9720139884        5.5592912416
 O       -10.6428641762        9.8758496084        4.9710814550
 C        -8.7013354825        8.4327637102        5.3614036684
 C        -8.9514812258        6.9790702086        4.4035700996
 O        -9.2557338342        7.1958687594        3.2927623214
 C        -8.4702986729        5.6569879351        5.0624673539
 C        -8.0723406292        4.4847273409        4.1014724863
 C        -9.3952342522        3.8898772974        3.5242961340
 O       -10.4958654006        4.0851077346        4.0811004435
 C        -9.4595578982        3.2456812395        2.1347079659
 C       -10.0133792960        4.4421197805        1.1182484549
 O       -11.0953041704        4.9755900156        1.3185855771
 C        -9.3203050265        4.5194805756       -0.2984586691
 C       -10.3353139757        4.7844985912       -1.4826283210
 C        -9.8575256312        4.6071527692       -2.8232393451
 O        -8.6746657335        4.4547411354       -3.0510893646
 C       -11.0173599891        4.5497618467       -3.9883240254
 C       -11.5814138220        3.0193070487       -3.9533005233
 O       -12.1740269382        2.6229361451       -2.9798820778
 C       -11.5917377294        2.1682319318       -5.2843150760
 C       -10.4493173725        1.3210447510       -5.5699742933
 C       -10.7590354785       -0.0444171984       -4.7575368977
 O       -11.7640739380       -0.2301590183       -4.2074704291
 C        -9.7516919411       -1.3808103752       -4.9829745712
 C        -8.8134265398       -1.5137698973       -3.6478380701
 O        -8.4029382779       -0.4290578096       -3.2071060161
 C        -8.4370607494       -2.7888905935       -3.0962117440
 C        -7.3036148566       -3.4477919128       -3.9745275699
 C        -5.9424694435       -3.3892717951       -3.2727291769
 O        -5.8882911827       -3.3709140759       -2.0436949145
 C        -4.4828451680       -3.1999071575       -4.0612081970
 C        -4.2307697865       -1.6350957781       -4.2452314496
 O        -3.4080150658       -1.3727624518       -5.1087886867
 C        -4.9334826410       -0.5502879747       -3.3752556988
 C        -3.3641812071       -3.8428574988       -3.2539747732
 C        -4.6492419384       -3.9072956964       -5.4500785401
 C       -10.4566793660       -2.7435886986       -5.2083090095
 C        -8.7967910765       -1.0515486272       -6.2221445982
 C       -12.3009211339        5.4205134363       -3.6888040884
 C       -10.2869495038        4.9387305551       -5.2851080435
 C        -8.0640701593        2.5585166785        1.8618248665
 C       -10.6041803831        2.2266600639        2.0731159749
 C        -7.9538272151        9.4863256327        4.4337528696
 C        -7.8563986879        8.2621122423        6.6984227975
 C       -13.3233959131        8.1341188508        3.3867635212
 C       -14.9844070879        8.9827081045        4.9691122696
 H       -17.0020404898        7.1019555048        5.3618818446
 H       -16.7847218696        5.5635271576        4.8717416039
 H       -17.1023579246        6.8582039617        3.7616853101
 H       -12.6727284080        8.2359291391        7.7094153642
 H       -12.5816895915        9.4029625030        6.5144386435
 H       -10.4460824154        7.2726813944        6.7675662702
 H       -10.5612308950        8.6997813443        7.6684943283
 H        -9.3417797588        5.1072145398        5.6843016387
 H        -7.6542986463        5.8730494261        5.8042201883
 H        -7.5008100483        3.7568395452        4.7831450211
 H        -7.3564495134        4.8576482100        3.3028396472
 H        -8.7438611810        3.5442467538       -0.6177495346
 H        -8.7148144693        5.4283282133       -0.1132358243
 H       -10.5496453094        5.8446940389       -1.3787077539
 H       -11.3224896875        4.3922230177       -1.2643658520
 H       -11.9670318454        2.9414672245       -5.9982345524
 H       -12.5820389720        1.5556506109       -5.1092445409
 H        -9.5173242221        1.7936973186       -5.3126999724
 H       -10.5280944830        1.1762848897       -6.6355023802
 H        -9.3202552343       -3.3959789406       -2.7671919677
 H        -7.9243952338       -2.5360433861       -2.1837431637
 H        -7.1988166808       -2.8980097151       -4.9413712727
 H        -7.3896709259       -4.5548521680       -4.2370044945
 H        -4.1868962545        0.1968375356       -3.0313050270
 H        -5.1736028618       -1.2237061894       -2.5679575625
 H        -5.8468419876       -0.1504203766       -3.7409713153
 H        -3.2437365969       -3.2403160763       -2.3680480281
 H        -2.4223175625       -3.9180749687       -3.7979792112
 H        -3.5666275543       -4.8180456306       -2.8566478603
 H        -5.5594878646       -3.5392140462       -5.7916419731
 H        -4.6599266090       -4.9799980806       -5.4102337069
 H        -4.0172004373       -3.5429289448       -6.2389364595
 H       -11.2214820495       -2.8467692487       -4.5211637107
 H        -9.7745326823       -3.5704788800       -5.1299086869
 H       -10.8979229184       -2.6112356753       -6.2574371209
 H        -8.6670411486       -1.9762925420       -6.7787786884
 H        -7.8945284407       -0.7265170347       -5.6310659585
 H        -9.1825803627       -0.2082600110       -6.8146816679
 H       -13.0155348401        5.5169032396       -4.5850571760
 H       -12.1066940735        6.4045213567       -3.3575888354
 H       -12.9707570436        5.0139671823       -2.9057880212
 H        -9.5676983951        4.3922290689       -5.6919991241
 H        -9.8369458863        5.8091953180       -5.3941434243
 H       -10.9601081445        5.0156895040       -6.0683548914
 H        -8.2532801916        1.8724039367        1.1324088493
 H        -7.5872208284        2.3111055450        2.7471225175
 H        -7.4083424569        3.3856544125        1.5103268087
 H       -10.5511991226        1.4602016115        2.8918001643
 H       -10.2862972601        1.5426908172        1.1714608374
 H       -11.5751236389        2.7775641725        1.9310681576
 H        -8.3118879988       10.5240570082        4.5905451657
 H        -8.2907095393        9.0894605623        3.4337122245
 H        -6.8646557434        9.3790992513        4.3338098748
 H        -8.5487814289        7.7219247062        7.4544310470
 H        -7.6643119309        9.2353862979        7.2235997531
 H        -6.9175696080        7.8175384737        6.5522975472
 H       -12.6530110226        8.9205710270        3.6096662372
 H       -13.9546458478        8.6766129674        2.7426125359
 H       -12.9691094982        7.1869446585        3.0147403554
 H       -15.6925654903        9.1452586125        4.1385790811
 H       -14.2840304476        9.7964494244        4.9948959042
 H       -15.6835919380        9.0477910354        5.8528224308
 Na      -12.5227867119        4.6774004064        3.4131391186
