117

 C       -16.6617835778        6.6509375005        4.6496390166
 C       -15.1066152201        6.5925841951        4.3222016429
 O       -14.6530600999        5.6527772882        3.7405833249
 C       -14.2071061264        7.8626830553        4.5248950845
 C       -13.1277703770        7.3262731045        5.5425088777
 O       -12.5837772656        6.2732589272        5.4721607483
 C       -12.5011166650        8.4759524777        6.5489275546
 C       -10.9643040756        8.1901860267        6.7180384372
 C       -10.1079747729        8.9554208011        5.6008603364
 O       -10.5971179503        9.8369232026        4.9261965057
 C        -8.6591779468        8.3469478971        5.2216545570
 C        -8.7001677079        7.0913967382        4.2677030351
 O        -9.2358974125        7.1725703403        3.1516441219
 C        -8.4370069649        5.7865056373        4.9802739221
 C        -8.1988797043        4.4107844031        4.2027543780
 C        -9.4764520845        3.9984058414        3.5709721968
 O       -10.4203409943        4.1343537506        4.2412684614
 C        -9.4497784616        3.2126794361        2.0550184402
 C        -9.9964120363        4.2810142785        1.1836080671
 O       -10.8963931815        5.0832861545        1.4896377830
 C        -9.3630065259        4.3330887077       -0.2822565169
 C       -10.3894352039        4.8290301688       -1.3358679872
 C        -9.8721062585        4.6410524661       -2.8093085059
 O        -8.6868531079        4.5026476217       -3.1598863269
 C       -10.9706030473        4.5672114915       -4.0082325506
 C       -11.5967027072        3.1507918703       -4.0495882814
 O       -12.0320517382        2.7431559251       -2.9812754702
 C       -11.6911942002        2.3838902579       -5.3714252783
 C       -10.5033381332        1.2435669463       -5.4161638439
 C       -10.7808847563       -0.1615319464       -4.9357736677
 O       -11.8682647938       -0.3496097698       -4.3275123616
 C        -9.7242073445       -1.3887660225       -4.9978695119
 C        -8.8243380020       -1.5090641222       -3.6002646366
 O        -8.4383414908       -0.4832876369       -3.1921040279
 C        -8.3093467660       -2.8694507566       -2.9687548863
 C        -7.2180422851       -3.5116820131       -3.7049447716
 C        -5.8677375789       -3.3525751600       -3.0705776633
 O        -5.6960715500       -3.2662052683       -1.8990800799
 C        -4.6951935557       -3.2337274287       -4.0791286069
 C        -4.3407135385       -1.7427624551       -4.2065109070
 O        -3.5517115194       -1.3648284839       -5.0366115974
 C        -4.9701082002       -0.6426385548       -3.3781163046
 C        -3.4319873396       -3.7092010960       -3.2994452487
 C        -4.8645301235       -4.0278933810       -5.3638113011
 C       -10.6079143516       -2.6505990984       -5.0147924823
 C        -8.7717997157       -1.1271191751       -6.3208265806
 C       -12.1455790087        5.3186857120       -3.6557073523
 C       -10.2138951182        4.8889214885       -5.2523079708
 C        -8.1512449506        2.5153805849        1.7418772641
 C       -10.5658955441        2.0996528397        2.2706093049
 C        -7.7877425355        9.4645039822        4.4445095385
 C        -7.8230909130        8.1914213987        6.5815580447
 C       -13.2244608497        8.0071040403        3.3255182777
 C       -15.0454327886        9.1380586606        4.8995551406
 H       -17.1487404734        7.5727037606        5.1361824573
 H       -16.7930716135        6.0259283346        5.4387296299
 H       -17.4612210079        6.4604228510        3.9019180159
 H       -12.8598259606        8.3660872973        7.4810027022
 H       -12.5752599913        9.5783766685        6.2878340070
 H       -10.6120486507        7.1687885705        6.6494405651
 H       -10.7012493988        8.4799021557        7.7079790796
 H        -9.2818835023        5.6343267578        5.7013994108
 H        -7.5471207167        5.9079562141        5.5989450203
 H        -7.8180908136        3.6849555341        5.0172078806
 H        -7.3512548604        4.5606940265        3.5587557937
 H        -9.2955609029        3.4089628057       -0.6224313465
 H        -8.4153838765        4.8807478345       -0.1238330919
 H       -10.7667691442        5.8256223444       -1.0473630666
 H       -11.3066443543        4.2374923609       -1.1320878072
 H       -11.6960071811        3.2364503967       -6.1172561195
 H       -12.7629876889        2.0284021913       -5.4311742154
 H        -9.6305350158        1.6306615331       -4.8997762216
 H       -10.3005466627        1.2070502163       -6.4272513410
 H        -9.0763512978       -3.5887928224       -2.7434008802
 H        -8.0115578863       -2.5062202674       -2.0080787553
 H        -7.2898213121       -3.1961526496       -4.7702594554
 H        -7.3804663319       -4.6651334767       -3.7882450371
 H        -4.2727090896        0.1341462660       -3.4195635976
 H        -5.2003108019       -0.9621480678       -2.3295800841
 H        -5.9023150861       -0.4331464471       -3.7926665548
 H        -3.3929157463       -3.0887042198       -2.3709018043
 H        -2.6094440006       -3.4141446679       -3.8578917882
 H        -3.2831650016       -4.7507734070       -2.9877157338
 H        -5.4457865609       -3.4528178887       -6.1593405162
 H        -5.1561095991       -4.9815162858       -5.1587538195
 H        -3.8781169801       -4.1481896938       -5.8570030661
 H       -11.4554666506       -2.4664788454       -4.3137590338
 H        -9.9857104380       -3.5142986935       -4.6103777374
 H       -11.0136528563       -2.8513470179       -6.0340041758
 H        -9.0760102760       -1.8717563919       -7.0179547520
 H        -7.7281186061       -1.2979556041       -5.8654201949
 H        -8.8606745639       -0.0870698496       -6.6291186365
 H       -12.9519653322        5.0899181222       -4.3481432784
 H       -12.0255519103        6.5015036871       -3.6719972789
 H       -12.5852779749        5.1330926543       -2.6764277949
 H        -9.4851776611        4.2178889968       -5.6187410065
 H        -9.6357650904        5.7810084479       -5.3922972169
 H       -10.7665993696        5.0369918232       -6.1313541779
 H        -8.4533025885        1.7687872593        0.9471654964
 H        -7.6993593893        2.1567637900        2.6256392628
 H        -7.4560246438        3.3015645135        1.3601416024
 H       -10.2589549631        1.2776942707        2.9569285126
 H       -10.6469978064        1.5916932991        1.3336311458
 H       -11.4965469932        2.7066948364        2.4820886318
 H        -7.9323362748       10.4757143557        4.8722149626
 H        -8.0148270975        9.4376929246        3.3848872198
 H        -6.7853044675        9.1317197959        4.4793866002
 H        -8.4364160396        7.6264139286        7.2804144973
 H        -7.7537810366        9.2294367779        7.1144209949
 H        -6.7183102299        7.8441597437        6.4935877382
 H       -12.2390888008        8.3548796332        3.6721102646
 H       -13.5318143665        8.8349780801        2.7036079275
 H       -13.2671099464        7.0110391332        2.9092857414
 H       -15.9022229209        9.2894625171        4.2114687098
 H       -14.4126933936       10.0013817650        4.6325633154
 H       -15.5546120129        9.2105917921        5.8678390919
 Na      -12.6271423401        4.7908198308        3.3404998042
