117

 C       -16.4092450065        7.0754056754        4.7223139292
 C       -15.0741302422        6.6882745682        4.1507334650
 O       -14.7594345296        5.6302379950        3.6664184330
 C       -14.0872632576        7.9150427071        4.1075643735
 C       -12.8782623725        7.4371215904        5.0128588027
 O       -12.4220451244        6.3583188067        5.0405283396
 C       -12.3282772890        8.3424769835        6.2111822225
 C       -10.8761022528        8.0951590934        6.4425186371
 C       -10.0403259368        8.8301431177        5.3897780856
 O       -10.4210158991        9.7326271190        4.6644651042
 C        -8.5627352965        8.3884079593        5.2368082511
 C        -8.4889604637        6.9371214029        4.4148517933
 O        -8.7374964479        6.9841724429        3.1999966588
 C        -8.1450613255        5.5642345101        4.9684260292
 C        -8.1462550908        4.5420506465        3.9007251610
 C        -9.5569728315        4.1260196903        3.5761834204
 O       -10.4869479991        4.2535864498        4.3587706109
 C        -9.6744271094        3.1205643754        2.4143630555
 C       -10.2418334710        4.1088935990        1.1988320523
 O       -10.9837320988        5.0080627540        1.4551659476
 C        -9.7489266291        3.8046776874       -0.2718268807
 C       -10.6539439745        4.6338721264       -1.2388216363
 C        -9.9639397822        4.6242563194       -2.6704354551
 O        -8.7331639174        4.6852194547       -2.7896813554
 C       -10.8011299580        4.6533818523       -3.9557710603
 C       -11.3270684269        3.1327677786       -3.8822143913
 O       -11.8481620580        2.7460557463       -2.8371189734
 C       -11.2816703616        2.2635573583       -5.1946792866
 C       -10.2136411667        1.1376504856       -5.0959835053
 C       -10.8443381309       -0.3158500302       -4.8891230420
 O       -12.0703185995       -0.4273580088       -4.7376139342
 C        -9.9296414803       -1.5925954090       -4.8443776854
 C        -8.9202749578       -1.4970562255       -3.4699732010
 O        -8.5335955805       -0.3542561091       -3.3986166057
 C        -8.5423343223       -2.6179074446       -2.5244831650
 C        -7.4045767705       -3.5790237247       -3.1799629020
 C        -6.0237201580       -3.3027887538       -2.7064375797
 O        -5.7018209302       -3.0473139876       -1.5587083732
 C        -4.7353647872       -3.2765479227       -3.8305946527
 C        -4.5710967653       -1.6279297340       -4.2852547408
 O        -3.9882633642       -1.5097031135       -5.3490667955
 C        -5.1954545183       -0.5156658140       -3.4237927656
 C        -3.4327429135       -3.7544372523       -3.1542812901
 C        -5.0054375218       -4.0425825153       -5.1239901487
 C       -10.7678321878       -2.9367748929       -4.7362465314
 C        -8.8927001278       -1.3820450394       -6.0899961969
 C       -11.8954368733        5.7384401630       -3.8493772476
 C       -10.0611261987        4.8651375315       -5.2313769260
 C        -8.2308645711        2.5318976190        2.0387197272
 C       -10.6514839678        1.9489930512        2.4801415263
 C        -7.8132468158        9.4485215559        4.2948511533
 C        -7.9124482415        8.2653576564        6.5419872521
 C       -13.7583261756        8.2359633183        2.5169198512
 C       -14.6676820144        9.2171445615        4.6496135280
 H       -17.2101241809        7.4888343873        4.1423876170
 H       -16.3668937624        7.5837087072        5.5827040471
 H       -16.9441415567        6.2155892204        5.0402542269
 H       -12.7160185890        8.0215312293        7.0820673422
 H       -12.5041342883        9.4071978190        6.0909768774
 H       -10.5980242558        6.9916464231        6.3722483789
 H       -10.4131570442        8.4529202591        7.3127398821
 H        -8.9185178950        5.3538401010        5.8559888096
 H        -7.2687371136        5.5853697877        5.6176386557
 H        -7.5421002443        3.6276262066        4.1620935528
 H        -7.5054617304        4.8929541034        3.1029495775
 H       -10.0164419455        2.8010775781       -0.5134681548
 H        -8.6415905991        4.0875920657       -0.6171653278
 H       -10.7716034792        5.6149415983       -0.7674987104
 H       -11.6541464564        4.2449478106       -1.3471493193
 H       -11.1364914402        2.9949453132       -6.0384234935
 H       -12.3174126542        1.7493060345       -5.1554337995
 H        -9.6302847816        1.3602493642       -4.1589663572
 H        -9.5380068197        1.3299384173       -5.9445347234
 H        -9.4712893930       -3.1431639544       -2.0754681082
 H        -8.1323382766       -2.1484234992       -1.6262574057
 H        -7.4451401472       -3.4899504991       -4.2379876681
 H        -7.7478752528       -4.6346273505       -3.0551523569
 H        -5.2824896638        0.4619018914       -3.9206698624
 H        -4.3195376974       -0.5102135341       -2.6582394512
 H        -6.0687998093       -0.8957945751       -2.9147856528
 H        -3.3368336617       -3.3427044473       -2.1093133306
 H        -2.5026251265       -3.6032455568       -3.6077907879
 H        -3.6234758135       -4.8376030360       -3.0114017468
 H        -5.5903050183       -3.4233019677       -5.8209462548
 H        -5.3184950133       -4.9730408034       -4.9345110202
 H        -4.0815787450       -4.3249092523       -5.6228321308
 H       -10.9815077296       -3.1079138869       -3.7501486995
 H       -10.2369453975       -3.7549131849       -5.1006607305
 H       -11.7389663159       -2.8202792788       -5.2574375764
 H        -9.2213281389       -0.7687840549       -6.8518773797
 H        -8.7762834595       -2.4580765399       -6.4239991345
 H        -8.0560222787       -1.0220278215       -5.5480218197
 H       -12.5253164967        5.9071628555       -4.6832182454
 H       -11.4650590107        6.7531750708       -3.6239551569
 H       -12.5064704071        5.6223321026       -3.0221042176
 H        -9.3650393836        4.1345471318       -5.3825161332
 H        -9.5425438709        5.7190176785       -5.4678148643
 H       -10.5576752627        4.8307896176       -6.1555448968
 H        -8.3821297091        1.7238025413        1.3670043470
 H        -7.9640535447        2.0259541409        2.8878845617
 H        -7.4603489811        3.2978792309        1.7671558457
 H       -10.0225739721        1.1388988876        2.8810973664
 H       -11.1471073821        1.7780128883        1.5044728320
 H       -11.5424668490        2.2156843959        3.1424730137
 H        -7.4938074581       10.2769519408        4.9717581277
 H        -8.4748880702        9.9060635697        3.5107656035
 H        -6.9647251114        8.9066735667        3.9094496939
 H        -8.3196065681        7.5020668636        7.1255377912
 H        -7.8694678993        9.2299916786        6.9942007047
 H        -6.8839498934        8.0364613981        6.3311532272
 H       -12.9626579548        8.9938053405        2.4624200752
 H       -14.7107055394        8.4751329773        2.0146942678
 H       -13.4406558427        7.2250744757        2.2431340781
 H       -15.5220800697        9.5603122747        4.0746985931
 H       -14.1006440537       10.0513111308        4.5139320572
 H       -15.1434335420        8.9773561831        5.6026482708
 Na      -12.3660888028        5.2279980688        3.1868878492
