117

 C       -16.3758075488        7.0008533894        4.6469886204
 C       -15.0239471502        6.8480045750        4.1080546256
 O       -14.6992633224        5.7873755324        3.5857094718
 C       -13.9970929846        8.0175226055        4.0002400161
 C       -12.8914500577        7.4748860124        4.9023998417
 O       -12.2598873517        6.4151936180        4.8466006628
 C       -12.4574902839        8.3846399954        6.2001767086
 C       -10.9467593303        8.1006401823        6.4418314212
 C        -9.9701497015        8.7336020345        5.2432069849
 O       -10.5064471085        9.6404390566        4.6307193967
 C        -8.3310887095        8.3787848886        5.1299861161
 C        -8.4036859056        7.0124367299        4.4349221912
 O        -8.6582273673        7.0188027455        3.1980123504
 C        -8.1638842967        5.6913202289        5.1195460099
 C        -8.0624504481        4.5838098242        4.0739091454
 C        -9.4484369517        4.0014592135        3.6832470959
 O       -10.3926309798        4.3447761845        4.3156630153
 C        -9.6536930295        3.1169825463        2.3133458101
 C       -10.2705687106        3.9661744340        1.1242762969
 O       -11.1451002471        4.8100087750        1.3556747032
 C        -9.9118438793        3.6808399698       -0.2976025030
 C       -10.6482583829        4.6596408630       -1.2661396379
 C        -9.8954367527        4.6808298850       -2.6323035557
 O        -8.6921711081        4.7379657750       -2.5927232592
 C       -10.7395205608        4.6025187183       -3.9294179742
 C       -11.3978150191        3.1750721197       -3.9160168823
 O       -11.8376478562        2.7796710620       -2.8667426770
 C       -11.2612391742        2.2652585051       -5.1241522363
 C       -10.1748380997        1.0215841787       -4.8296727818
 C       -10.8335442123       -0.3175075824       -4.8507643256
 O       -12.0663612459       -0.5082228583       -4.8686993728
 C        -9.8817688068       -1.6437495031       -4.7488343343
 C        -8.9932540837       -1.4755321577       -3.4777148025
 O        -8.4033563273       -0.4412438811       -3.3286719007
 C        -8.4984716534       -2.5719429788       -2.5081499102
 C        -7.4391689585       -3.4357378579       -3.1746664960
 C        -5.9831662614       -3.2320695038       -2.6653826696
 O        -5.7444924320       -2.9846019888       -1.5182288917
 C        -4.9800145335       -3.2025816602       -3.7396256216
 C        -4.7021699246       -1.7239032821       -4.2885996979
 O        -4.1958532594       -1.5358399123       -5.3511114643
 C        -5.1134749044       -0.4748520466       -3.4765602502
 C        -3.6654038442       -3.6817644221       -2.9971685319
 C        -5.1736943703       -4.0508618798       -4.9897854573
 C       -10.7237046809       -2.9135687764       -4.6469285310
 C        -8.9847366446       -1.5279421246       -6.0335177378
 C       -11.9680957092        5.5824300849       -3.8066453518
 C        -9.8028076020        4.8148891389       -5.1383071006
 C        -8.3657531262        2.4474480422        1.8906149750
 C       -10.7870415407        2.0474338774        2.4843343679
 C        -7.6295070455        9.3138950754        4.1965709452
 C        -7.8043766613        8.3234748640        6.5958687154
 C       -13.8238984193        8.0978344727        2.4837720416
 C       -14.6280240592        9.3306797586        4.5369995812
 H       -17.3163041158        7.1495079269        4.0947359371
 H       -16.4595056931        7.6588141289        5.4874747023
 H       -16.6487537750        6.1327630228        5.1606402783
 H       -12.8793151412        8.2149370066        7.1327882979
 H       -12.4985527776        9.3882375080        5.9228029392
 H       -10.7123424118        7.0829704848        6.6639659678
 H       -10.4719481433        8.7243492226        7.1765104012
 H        -8.8522153286        5.4878115108        5.9650224129
 H        -7.2583998130        5.8527188985        5.7848566689
 H        -7.1170754873        3.9284445472        4.0833062678
 H        -7.7793541461        5.1446755613        3.1719967953
 H       -10.1316785063        2.7321522937       -0.6045830093
 H        -8.8230642660        3.9636210350       -0.5473816207
 H       -10.6184408545        5.6811692412       -0.8043595961
 H       -11.7167020615        4.4392277384       -1.4081758686
 H       -10.8725029663        2.9138778989       -6.0311282350
 H       -12.2715642985        1.7085500661       -5.2333698439
 H        -9.5398059830        1.1560272236       -3.9393177827
 H        -9.5412142293        1.0880122931       -5.6608523720
 H        -9.2562009072       -3.0009889423       -1.8586540723
 H        -7.9097973431       -1.9991781169       -1.7865534380
 H        -7.4994647040       -3.2863757308       -4.2625850727
 H        -7.9156984968       -4.4790654292       -3.1470351907
 H        -5.1599394322        0.3056747640       -4.1794575175
 H        -4.2569964350       -0.3254103449       -2.7922112456
 H        -6.0503025353       -0.6155211079       -2.9432446644
 H        -3.4231970815       -3.1138547894       -2.0989997470
 H        -2.7679527822       -3.6509269775       -3.5588911448
 H        -3.9090917812       -4.6890643008       -2.6933465407
 H        -6.0453440871       -3.8803695964       -5.5670378504
 H        -4.9078272338       -5.0621345620       -4.8318029720
 H        -4.3597240768       -3.7983022039       -5.5504406223
 H       -11.1417244287       -2.9985278172       -3.5989896911
 H       -10.3175029850       -3.8685218023       -4.9389643991
 H       -11.5180818179       -2.6361185724       -5.2344272400
 H        -9.5948989637       -1.0624833963       -6.8353240358
 H        -8.8383340848       -2.5707479493       -6.3365890630
 H        -8.1328535435       -0.9046841646       -5.7134933949
 H       -12.4331832240        5.9130750937       -4.7048164237
 H       -11.6636113084        6.5730671175       -3.3039205514
 H       -12.7492609334        5.2726292270       -3.1061270267
 H        -9.1322335507        4.0083908676       -5.1416317146
 H        -9.1884254484        5.6497547506       -5.1685210580
 H       -10.0531775017        4.8112338786       -6.0962148712
 H        -8.6220426505        1.4899111883        1.4173659498
 H        -8.1030008538        1.9250619545        2.8247000689
 H        -7.6180761960        2.9983530629        1.4241334656
 H       -10.4527245394        1.3694674262        3.3676696636
 H       -11.1814751203        1.6297741990        1.5760696158
 H       -11.6388001175        2.7612355647        2.7985533656
 H        -7.5336724128       10.2418476223        4.8422874221
 H        -8.1209341725        9.6096332964        3.2711280178
 H        -6.6318342126        8.8415061838        4.0922488685
 H        -8.2958749584        7.6007398418        7.1803832205
 H        -7.9685537139        9.3753132675        6.8755815856
 H        -6.6472094392        8.1781086605        6.7167975910
 H       -13.4291020956        9.0936479347        2.2459477610
 H       -14.7881039987        7.8158509499        2.0881086542
 H       -13.1778396571        7.3053003007        2.2188555017
 H       -15.6006484209        9.5606366417        4.1780229443
 H       -14.1541132623       10.2662985155        4.2003405143
 H       -14.7715717317        9.1454065679        5.5513222290
 Na      -12.3773132732        5.2500813580        3.0964952070
