117

 C       -16.4484033294        6.8108409049        4.6771530201
 C       -15.0545097885        6.8095688219        4.1050602996
 O       -14.6551972921        5.7801716141        3.5162163608
 C       -14.0654808857        8.0442999672        4.0256157956
 C       -12.7472360606        7.7424361806        4.8198939526
 O       -12.2072764111        6.6386301376        4.5964517690
 C       -12.2737405516        8.4930376139        6.0676911465
 C       -10.8454908071        8.2231370181        6.4756432918
 C        -9.9165921016        8.8835641696        5.3302701959
 O       -10.4610673743        9.4846622219        4.4648240587
 C        -8.4804512366        8.4628060811        5.1984253310
 C        -8.3913584084        7.0554043791        4.3427762853
 O        -8.5815570274        7.0219525844        3.1892835141
 C        -8.0993132328        5.6748908964        5.0907330576
 C        -8.0203826398        4.5000631276        4.0931783942
 C        -9.4090048269        4.0089324695        3.5678425556
 O       -10.4214260706        4.3518183384        4.2201886477
 C        -9.6782872402        3.0947333988        2.3623133595
 C       -10.2818792514        3.9473773360        1.0911202977
 O       -11.3062376399        4.6373204540        1.2608841896
 C        -9.9787443637        3.6427483069       -0.2555929502
 C       -10.5501828457        4.7153350703       -1.2258882540
 C        -9.8313264557        4.7874780694       -2.5450561951
 O        -8.6390869038        4.7880979038       -2.5291971830
 C       -10.6107955204        4.5140562886       -3.7994512177
 C       -11.2967562776        3.0496333839       -3.8840926991
 O       -11.9616822548        2.7090134263       -2.9440002531
 C       -11.2471335551        2.0642231667       -5.1021395835
 C       -10.2392957259        0.9622451032       -4.6364655994
 C       -10.9078432071       -0.3322654488       -4.6753484406
 O       -12.0061702534       -0.5635496671       -5.0096150088
 C        -9.9217123275       -1.5915692049       -4.6035989178
 C        -8.7959267002       -1.3130420640       -3.4329494476
 O        -8.2163869055       -0.2353395292       -3.2734583202
 C        -8.6343149432       -2.6299563878       -2.4544314343
 C        -7.5961342209       -3.4058720877       -3.1307991039
 C        -6.0837473342       -3.0585714643       -2.6955999695
 O        -6.0035842468       -2.9401194200       -1.4704561380
 C        -4.9822874377       -3.1387113320       -3.6859131664
 C        -4.7268387322       -1.7257129749       -4.3018478064
 O        -4.4036010650       -1.6308694752       -5.4653441573
 C        -5.0363149536       -0.4087090574       -3.3929507289
 C        -3.6791539494       -3.5685506566       -2.8956899918
 C        -5.2796006664       -4.1680526796       -4.8890512694
 C       -10.7295449053       -2.8998066395       -4.5969764253
 C        -9.0606096493       -1.7766454307       -5.9503307854
 C       -11.8849200257        5.4728057047       -3.9057436434
 C        -9.6461050394        4.8987772476       -4.9422696897
 C        -8.4043707509        2.2904423999        1.7443109210
 C       -10.9293305278        2.1818095680        2.7114489563
 C        -7.5619880900        9.3113038117        4.2366571512
 C        -7.7516251308        8.3559371074        6.6097621143
 C       -13.5906958680        8.0964720423        2.4186447591
 C       -14.6085200640        9.5027769856        4.4031398300
 H       -17.1332184230        7.0510658221        3.8676371444
 H       -16.7028141510        7.7307072756        5.3976850872
 H       -17.1032348881        6.0483603985        5.1704289304
 H       -12.8646344793        7.9821859503        6.9718469341
 H       -12.4740679347        9.5428734286        5.9581357823
 H       -10.5907976374        7.2376697567        6.2854971666
 H       -10.5010584666        8.5071487408        7.5080446831
 H        -8.8397560788        5.4043131823        5.7238904048
 H        -7.3437253785        5.7200021899        5.8865538370
 H        -7.7429699494        3.6272355583        4.6737725866
 H        -7.1401986849        4.5120184716        3.3780468011
 H       -10.4267928502        2.6296616020       -0.6104402877
 H        -9.0019698997        3.6457326048       -0.4664863332
 H       -10.5413421860        5.7869804588       -0.8707070686
 H       -11.6248237012        4.5007245483       -1.4421661641
 H       -10.8915985942        2.4905981895       -6.0256435081
 H       -12.1858584683        1.4948833795       -5.0992169007
 H        -9.8607760366        1.1632844077       -3.6687203539
 H        -9.3548714259        1.0264363299       -5.2653871409
 H        -9.6047995260       -2.9747822255       -2.4675510133
 H        -8.3711898034       -2.6290590504       -1.3885605374
 H        -7.9308083259       -3.4020407278       -4.2265100436
 H        -7.8952870297       -4.4384834299       -2.9320715814
 H        -5.1365831021        0.4052635835       -4.1172051869
 H        -4.4130025670       -0.1645959649       -2.6507685011
 H        -6.0700138526       -0.5972084698       -3.0681572998
 H        -3.2689892503       -2.8579397694       -2.2489272037
 H        -2.8378898518       -3.6173681398       -3.6516938858
 H        -3.8164231814       -4.4807445019       -2.3948375002
 H        -6.3210411684       -4.3237160815       -4.9405802259
 H        -4.7450403942       -5.1740119867       -4.6930795577
 H        -4.8996098012       -3.9346482033       -5.8703704656
 H       -11.3907593080       -3.0748615383       -3.6925491407
 H       -10.0531508709       -3.8056263785       -4.6986695195
 H       -11.3304899996       -2.7780135479       -5.5130518773
 H        -9.9781229458       -1.8266528482       -6.6405833635
 H        -8.6562383053       -2.7427199922       -5.9438853608
 H        -8.4540513119       -0.8586570702       -6.1138108324
 H       -12.1626603117        5.7815689817       -4.9633832582
 H       -11.8228172823        6.4016905688       -3.4103815753
 H       -12.8295206034        5.0652362867       -3.3740114706
 H        -8.8330411789        4.2155755431       -5.1883516688
 H        -9.1236709565        5.8435800714       -4.7793967700
 H        -9.9011550085        5.0721790935       -6.0463031592
 H        -8.6572699966        1.5087786651        1.0191785149
 H        -7.8842693520        1.5800132338        2.4930524349
 H        -7.7616709082        3.0613958133        1.2826423712
 H       -10.7556370855        1.8156536935        3.7252819732
 H       -11.0387596835        1.4184572662        1.8941187563
 H       -11.8333959744        2.7184035772        2.5913057830
 H        -7.6763004448       10.3455515737        4.4866540385
 H        -7.8796967917        9.2343433244        3.2026665513
 H        -6.5202708461        8.9218201826        4.4526743706
 H        -8.0642561232        7.5108079259        7.3838562320
 H        -7.7901762359        9.4162328183        6.9491888307
 H        -6.6846500917        8.2023005224        6.4310138527
 H       -13.3892463026        9.1502769677        2.2957312952
 H       -14.4220772195        7.6662625474        1.9180417037
 H       -12.6968773659        7.5385901052        2.1669469961
 H       -15.4818107912        9.9564250442        3.9535561233
 H       -13.8566263402       10.1589579343        3.8912630709
 H       -14.6171414275        9.6190285612        5.4670052887
 Na      -12.4404181888        5.1578357104        3.0055130397
