117

 C       -16.1647625813        7.1195428122        4.6251899781
 C       -14.9081732013        6.9832710994        3.8906221039
 O       -14.4608479708        5.8924676705        3.5413380031
 C       -13.9864982282        8.3084795327        3.6269814542
 C       -12.5679491618        8.0205532068        4.5836089877
 O       -11.9305574533        7.0373346574        4.2436215231
 C       -12.1047982716        8.9842574985        5.6841487489
 C       -10.7230016334        8.7925275746        6.1892615541
 C        -9.7847852115        8.8272568170        4.9457077230
 O       -10.2654892496        9.2540681674        3.9174596438
 C        -8.4143491311        8.2944949448        5.0797485441
 C        -8.3879973998        6.8993739279        4.1188639964
 O        -8.3115312174        7.0002617206        2.9591225482
 C        -8.1295224253        5.5361744868        4.7968037543
 C        -8.1686637545        4.3722034362        3.8851437835
 C        -9.6534734213        4.1353764870        3.5194017950
 O       -10.4878286363        4.8683074348        4.0059133619
 C        -9.9238360153        2.9910795024        2.4637253026
 C       -10.6519441441        3.6540520775        1.1778336901
 O       -11.7904515063        4.0422913720        1.3926300772
 C        -9.8833590744        3.7364783478       -0.0900017842
 C       -10.4213276677        4.6473078462       -1.1592129614
 C        -9.6654923758        4.6905222368       -2.6425846427
 O        -8.4761583723        4.8861068068       -2.5675684488
 C       -10.5059732060        4.5858945412       -4.0531727395
 C       -11.3297400983        3.2159775390       -3.8800051653
 O       -11.9468113184        3.0211179770       -2.8282814997
 C       -11.1960386485        2.1058619216       -4.9301445047
 C       -10.2126916001        0.9460097999       -4.3682099043
 C       -10.7857268100       -0.4001782452       -4.7599295866
 O       -11.8354102283       -0.4927666090       -5.3348266265
 C        -9.9167218150       -1.7482655990       -4.3985728730
 C        -8.9371455890       -1.5978293968       -3.2661569117
 O        -8.1545559722       -0.6132274443       -3.2129823814
 C        -8.7844763580       -2.7075319707       -2.2230267116
 C        -7.6143374173       -3.6711503238       -2.4131505200
 C        -6.1924928008       -2.9318040404       -2.2966119334
 O        -6.1100784030       -2.2435068152       -1.2918023142
 C        -5.0637497377       -3.1811270887       -3.3549098877
 C        -5.1942641881       -1.9093404465       -4.2928881240
 O        -5.5689560231       -1.9238902941       -5.4781466432
 C        -4.9887120228       -0.5176068031       -3.6742359977
 C        -3.7312244194       -3.4248614098       -2.5646647924
 C        -5.2840284696       -4.4221741279       -4.3407275268
 C       -10.9308707531       -2.9643407262       -4.4610226071
 C        -9.0826114175       -2.1177132596       -5.6500884585
 C       -11.3529185166        5.8031211453       -4.1445373196
 C        -9.5223036333        4.7175638775       -5.1600772512
 C        -8.5739469263        2.2261789117        2.1912082773
 C       -10.9802158380        2.0542601009        3.0977818230
 C        -7.2947999196        9.1832019171        4.4143356494
 C        -7.9134645050        7.9190164943        6.4402596974
 C       -13.4969467049        8.3160051012        2.1239444872
 C       -14.5074830417        9.6710053880        4.1245046130
 H       -16.7510082936        8.0332708412        4.4396208998
 H       -16.2266020199        7.1147802291        5.7122131985
 H       -16.9612493133        6.3222645424        4.3921626882
 H       -12.7732263111        8.9759350950        6.5690856703
 H       -12.1632577616        9.9204764588        5.1349909553
 H       -10.4981835267        7.9240093630        6.7114532546
 H       -10.3838827225        9.6634502207        6.7944502589
 H        -8.7034414437        5.3185929210        5.6894487882
 H        -7.1267508077        5.5903633052        5.3020095291
 H        -7.6340770648        3.5142440183        4.2705714947
 H        -7.4593557758        4.5365051807        2.9947268415
 H        -9.6173701836        2.6652016896       -0.3304487045
 H        -8.9528947800        4.1070651951        0.1112099923
 H       -10.4277222663        5.7015158052       -0.8186346615
 H       -11.4784644068        4.3762019568       -1.2290997378
 H       -10.7165967474        2.5009172985       -5.8644218013
 H       -12.1882380827        1.5227759003       -5.0314491319
 H       -10.0579479717        1.0688328311       -3.3256306424
 H        -9.1593253266        0.9621856886       -4.7276493468
 H        -9.6599993450       -3.2854885101       -2.0376133151
 H        -8.6813763342       -2.0222900032       -1.3577578001
 H        -7.9256206503       -4.0997834485       -3.4726603574
 H        -7.7905327071       -4.5545269704       -1.7617972413
 H        -4.0488122503       -0.1599783982       -4.0818067940
 H        -4.9287080805       -0.5150656421       -2.6169271332
 H        -5.7691693663        0.0715470862       -4.1208518486
 H        -3.6641205333       -3.0979202411       -1.5495848956
 H        -2.9065773862       -2.8308111610       -3.0936877131
 H        -3.4155970877       -4.4428268260       -2.6316380235
 H        -5.9467293267       -5.1855386669       -4.1470736012
 H        -4.3717693880       -4.9817964882       -4.4019782932
 H        -5.4737135136       -4.0068204232       -5.2931003726
 H       -11.4279064562       -3.1555568644       -3.5655947927
 H       -10.4058639868       -3.8638386455       -4.7339404385
 H       -11.6856319208       -2.8116719705       -5.3020841355
 H        -9.6744839510       -2.3079058626       -6.5641403180
 H        -8.4572111802       -2.8914546180       -5.2165816135
 H        -8.5565280073       -1.1468625812       -5.8516359749
 H       -12.2777689534        5.5849476054       -4.8011711561
 H       -10.9301950713        6.6205377852       -4.6261184912
 H       -11.8125319884        6.1278646618       -3.1751309364
 H        -8.8945209943        3.9241098535       -5.4408932343
 H        -8.8033326415        5.4776200640       -5.0117019153
 H        -9.9880192728        4.9354071041       -6.1241453945
 H        -8.6103192882        1.3435917487        1.6002478268
 H        -8.1699042133        1.8875347238        3.1482791271
 H        -7.7588477757        2.7922882377        1.5882774834
 H       -10.3230300698        1.3519452569        3.6818469583
 H       -11.4696085599        1.5515874225        2.1495347027
 H       -11.6952585056        2.4515483961        3.8647986157
 H        -7.0016850187       10.1136329226        4.9063403232
 H        -7.7382963469        9.3589863667        3.3957631301
 H        -6.3618710804        8.5327505618        4.3623851193
 H        -8.5052196199        7.0007115096        6.8838323708
 H        -8.0706135561        8.7068073997        7.2046207067
 H        -6.9385342459        7.5451590296        6.3382295521
 H       -12.5011204291        8.7131952948        1.9691485851
 H       -14.3778831430        8.7782768764        1.7115782645
 H       -13.4717790729        7.3121560606        1.7092734375
 H       -15.5676104572        9.9158400907        4.0830294498
 H       -13.9635981782       10.4429595311        3.6633267556
 H       -14.1399479248        9.8177452452        5.1241483690
 Na      -12.5413012079        4.9169167575        3.3643186505
