117

 C       -16.2827997189        7.5285479211        4.7047285883
 C       -14.8520083881        7.2832597666        4.0189029296
 O       -14.6954523794        6.1245458017        3.5738765940
 C       -13.9622558953        8.4359396262        3.6428145640
 C       -12.7422323068        8.1304290762        4.4433072913
 O       -12.1413421277        7.0419950415        4.4581384542
 C       -12.1150153730        9.2385932333        5.3671407712
 C       -10.7141225958        8.8313503140        5.8516032357
 C        -9.6795096516        8.8504341507        4.6759426807
 O        -9.8447721519        9.2960788297        3.5907761503
 C        -8.2649406444        8.3233799660        4.9929878009
 C        -8.2041389094        6.9204614265        4.0544240814
 O        -8.2890325757        6.9331248619        2.8474934261
 C        -7.8660311976        5.5911787678        4.7190820517
 C        -7.8983343316        4.3518963854        3.7447052879
 C        -9.4260174328        3.8916378709        3.5198754651
 O       -10.3080361070        4.4835510859        4.1753503278
 C        -9.9162339071        2.9121161008        2.4165453294
 C       -10.5522740988        3.6612385948        1.0736753565
 O       -11.7581818745        3.9307803257        1.1328227280
 C        -9.6519019658        3.8898875515       -0.2262203551
 C       -10.4534140664        4.8056048269       -1.2224499355
 C        -9.5768153360        4.7798236176       -2.3803729267
 O        -8.3581966845        4.6816917294       -2.4450666123
 C       -10.4052304312        4.5408999015       -3.8166647598
 C       -11.3372059626        3.3007980221       -3.8192602501
 O       -12.1738335768        3.2078307784       -2.9583923379
 C       -11.1579512161        2.1102788629       -4.8144639649
 C       -10.1832084392        0.9195047896       -4.4081763609
 C       -10.6459033826       -0.4853145287       -4.8761224257
 O       -11.6950685776       -0.5598346979       -5.4512417047
 C        -9.9001016651       -1.7680293578       -4.4574467296
 C        -8.9822050294       -1.8016425579       -3.2479497830
 O        -8.3073850676       -0.8421894394       -3.0345228801
 C        -8.9498697383       -2.8647137796       -2.1486661025
 C        -7.6233375877       -3.7009392096       -2.2631464704
 C        -6.2461801882       -2.9632877028       -2.0731994276
 O        -5.9177354518       -2.0448443598       -1.3331189258
 C        -5.0954267694       -3.2073349476       -3.1673739607
 C        -5.4967313891       -1.9915325818       -4.1524633546
 O        -6.1249665821       -2.2023336681       -5.1555459344
 C        -4.9299686434       -0.6925375489       -3.7884776971
 C        -3.6501361145       -3.0307578709       -2.6630488736
 C        -5.4738915536       -4.4797758509       -3.8225595633
 C       -11.0475102387       -2.8470639304       -4.2825911378
 C        -9.0181783673       -2.0863033124       -5.7458340710
 C       -11.4075271085        5.7742831497       -3.8911934349
 C        -9.4023948047        4.3991370279       -4.9451620853
 C        -8.8895847973        2.0168792877        1.8807912999
 C       -11.0327040907        2.0647883871        3.1493870672
 C        -7.0629917185        9.1310934335        4.4281008976
 C        -8.0858459299        7.9510343575        6.5360215292
 C       -13.6864828446        8.2989093312        2.0091146431
 C       -14.6447055076        9.8697508676        3.8207968277
 H       -16.5102472402        8.4199591342        5.2211195815
 H       -16.5526562653        6.8015881710        5.5538400227
 H       -17.1493522039        7.4214721379        4.0969278822
 H       -12.7213753426        9.1203704295        6.3389228130
 H       -12.2773477945       10.1874908749        4.8573238424
 H       -10.7523478598        7.7763060270        6.3397443275
 H       -10.2091115816        9.4863331105        6.5756890758
 H        -8.5378378310        5.3708844013        5.5764234566
 H        -6.8625132203        5.6325971350        5.1644296304
 H        -7.3039552776        3.4739280759        4.0599805822
 H        -7.4565356780        4.4892374710        2.8078757541
 H        -9.2577384451        2.8962367864       -0.5615156398
 H        -8.6202268478        4.3835861992        0.1820034644
 H       -10.6702053819        5.7882584991       -0.7882899642
 H       -11.4318384909        4.2908915860       -1.3627516632
 H       -10.7791598115        2.3050643073       -5.7869387918
 H       -12.1255736544        1.7286662325       -4.9386708646
 H       -10.3310196431        0.8925412747       -3.2929285370
 H        -9.1510946515        1.1164941432       -4.4057309127
 H        -9.8423552049       -3.5323524143       -2.1918612909
 H        -8.8895234161       -2.3456691502       -1.1845805693
 H        -7.7716815813       -4.4244233245       -3.0653491205
 H        -7.6075437821       -4.2367409387       -1.2987935671
 H        -3.8459801617       -0.6906251476       -3.7780836788
 H        -5.3015876407       -0.5576844382       -2.7794182331
 H        -5.3343996695        0.0573553800       -4.5432997444
 H        -3.5683311037       -2.3409697389       -1.8103640365
 H        -2.9905488244       -2.6889617080       -3.4210432291
 H        -3.1629462130       -3.9790452913       -2.3125406466
 H        -5.0892239895       -5.3200095121       -3.1922156837
 H        -4.8700040641       -4.7063163060       -4.7847203513
 H        -6.5305184020       -4.5790942370       -4.1469495925
 H       -11.6636678662       -2.5204335886       -3.3327027916
 H       -10.5840501713       -3.8589262262       -4.0524503434
 H       -11.6999277112       -3.0020326299       -5.1071475335
 H        -9.2900007535       -1.2668287566       -6.4001602000
 H        -9.3301421437       -3.0536002314       -6.0627126817
 H        -7.9811898026       -1.9401651551       -5.5044526596
 H       -11.8222898802        6.0545814913       -4.8312476481
 H       -10.7916702060        6.6943599284       -3.6074833009
 H       -12.2615785942        5.7274804190       -3.2090632146
 H        -8.8319415298        3.4262733691       -4.9918904891
 H        -8.4603289353        5.0246539264       -4.8544050286
 H        -9.6323624117        4.5545432775       -6.0488804096
 H        -9.3670905912        1.4359631645        1.0289188622
 H        -8.6048889488        1.2814157933        2.7146680985
 H        -7.9766898810        2.2620190596        1.4564072104
 H       -10.5946276557        1.5183288959        3.9629262769
 H       -11.4985303572        1.4013790074        2.4893181422
 H       -11.6419110996        2.7652258241        3.6256612475
 H        -6.9575352672        9.8318954471        5.2847679940
 H        -7.1646760602        9.5754796409        3.4640874288
 H        -6.1553656481        8.5991010063        4.5459488997
 H        -8.8653208262        7.4133182021        7.0024853376
 H        -8.1337109135        8.8892444334        7.0795952515
 H        -7.0736784495        7.4309659509        6.6867841619
 H       -12.7571730424        8.9386136823        1.9620127443
 H       -14.5729915232        8.6373158706        1.4129948278
 H       -13.2812999441        7.3154610641        1.7804310829
 H       -15.3988308195        9.9151833002        3.0242014320
 H       -13.8493286226       10.7034673798        3.9259646482
 H       -15.2005605671       10.0541188437        4.7191343552
 Na      -12.5026516211        4.9483360661        3.2443366484
