117

 C        -7.6497628692       10.1999457303       -1.9428051261
 C        -7.6858914008        9.9690137706       -0.3905572605
 O        -8.7323089149        9.6782200686        0.1443636142
 C        -6.4130136869       10.2514535547        0.5605932789
 C        -5.4833471384        9.1545316024        0.1312403240
 O        -5.1423127131        9.0468103602       -1.0487315000
 C        -5.0357883698        8.0300330976        1.0556170850
 C        -4.9282886682        6.6954826518        0.2228784234
 C        -6.2964239685        6.3235255552       -0.2263423106
 O        -7.3044869337        6.9429248316       -0.0378025826
 C        -6.3991933605        4.9402248857       -1.1193837759
 C        -6.1582470927        3.6817886990       -0.1981667617
 O        -4.9762059418        3.2831059194       -0.0118860278
 C        -7.3568894267        2.8053628652        0.2684018389
 C        -6.8846508327        2.0360809544        1.5395789778
 C        -7.7342102822        0.8611279014        1.8783222228
 O        -8.6955535126        0.5483347267        1.1550513644
 C        -7.6852756653        0.0842280723        3.2097843819
 C        -8.9049310739        0.6449264035        4.0626554214
 O        -8.7699383397        1.6009624344        4.8122309389
 C       -10.2565481278       -0.0157780209        3.9037565351
 C       -11.2990932224        1.1371017579        4.2302320827
 C       -11.2517948448        2.2499207288        3.2432502049
 O       -10.2573634641        2.3909929167        2.5662670941
 C       -12.4314812877        3.2971505828        2.9410248862
 C       -13.0776960747        2.8327204730        1.6509842603
 O       -12.3935483430        2.4976495315        0.6981258100
 C       -14.5538007803        3.1679434659        1.4506682712
 C       -14.9965172348        2.6838681959        0.0263617392
 C       -14.4946082658        3.7006338709       -1.0975463245
 O       -13.8741106185        4.6734563811       -0.8001623031
 C       -14.9241177794        3.4092644865       -2.5528867608
 C       -13.6479839777        2.8298523009       -3.4296841935
 O       -13.7722011419        1.8619655845       -4.0611569384
 C       -12.3061433460        3.5781019217       -3.2467653909
 C       -11.1367489451        2.8252400621       -4.0659497383
 C       -10.3455857278        1.8860219734       -3.1219755701
 O        -9.4836236880        2.2680137053       -2.3596095745
 C       -10.5902164159        0.2196624844       -3.3073138624
 C       -11.6870547584       -0.1140394791       -2.2998915161
 O       -11.6002434013        0.1751661208       -1.1111716930
 C       -12.7907983447       -1.0750729271       -2.6384676484
 C       -11.0873894277       -0.1164021706       -4.7230955564
 C        -9.1974902952       -0.4836792076       -3.0431701758
 C       -16.0137365847        2.4095066576       -2.7255041085
 C       -15.4011671323        4.7718202108       -3.1770553185
 C       -13.2733877774        3.5555689621        4.1594841227
 C       -11.7529717959        4.6570636155        2.5845120249
 C        -7.8478564230       -1.4827013258        2.9212528004
 C        -6.4506243123        0.3423671411        4.0895280228
 C        -7.8876491463        5.0218756073       -1.7156454214
 C        -5.3174073393        4.9147545288       -2.2120004417
 C        -5.7024695466       11.6191419600        0.3037159706
 C        -6.9505330345        9.9933007582        1.9970518763
 H        -8.5517603959       10.7495644436       -2.1625927812
 H        -7.8532633218        9.2495639909       -2.4863095030
 H        -6.7323090935       10.6088605381       -2.3565229870
 H        -5.8722379163        7.8900425642        1.8704548857
 H        -3.9871517136        8.1857256151        1.4996683906
 H        -4.6503167327        5.8623586508        0.8636820863
 H        -4.2828988813        6.8776870757       -0.6176785019
 H        -7.6367893275        2.1756463261       -0.5388304324
 H        -8.2435044122        3.2936426298        0.6163847341
 H        -6.7415401541        2.7736610141        2.3813995536
 H        -5.9432665515        1.6925924821        1.2351827857
 H       -10.3211396423       -0.7582238009        4.7050020895
 H       -10.4490690555       -0.4670726875        2.8780672354
 H       -10.9480774942        1.6622631370        5.1907152299
 H       -12.3275358677        0.7368185126        4.3324607316
 H       -14.6483906841        4.2316999108        1.6179788822
 H       -15.0796275189        2.5804702555        2.1668269128
 H       -16.1460763927        2.8682263215        0.0017258012
 H       -14.9827493383        1.5734236520       -0.1981608348
 H       -12.1070293532        3.5916241746       -2.1965157122
 H       -12.4208596733        4.6823822104       -3.4210705816
 H       -10.4395584983        3.6298452985       -4.3472519048
 H       -11.5213371036        2.2470111035       -4.9986799496
 H       -13.6716130465       -0.8834882717       -1.9894081708
 H       -12.3347816369       -2.0041574008       -2.6493251285
 H       -13.1329804161       -0.8542835343       -3.6128407041
 H       -10.6225890541        0.5291013021       -5.5166840548
 H       -12.0752491037        0.1849117416       -4.8559654440
 H       -10.7516845332       -1.0783747707       -4.8705932005
 H        -8.9652697555       -0.5239212396       -1.8922181151
 H        -8.4473245345       -0.0121688293       -3.5381665750
 H        -9.2691776843       -1.4821084249       -3.4974466787
 H       -15.8508271712        1.4242480262       -2.2940594504
 H       -15.9834448231        2.1541734357       -3.8273133702
 H       -17.0638044968        2.7870853595       -2.5350056398
 H       -16.0042719459        4.6543427978       -4.0865302906
 H       -14.6479329960        5.4904361854       -3.3247258935
 H       -16.0936156970        5.3063962862       -2.3978319913
 H       -12.6479899587        3.7795557743        5.0338215357
 H       -14.0093863334        2.7363074150        4.3328225540
 H       -13.7985324958        4.4901489213        4.1269737745
 H       -11.1428770206        4.9693505555        3.4229143293
 H       -12.4481587956        5.3997931800        2.2867042658
 H       -11.0614979037        4.3971043210        1.7622599563
 H        -8.1803528051       -2.1322866891        3.7326787568
 H        -7.0206025745       -1.9422504097        2.4664561173
 H        -8.6157715512       -1.5324611896        2.0333324239
 H        -5.5285739596        0.0237532615        3.6841389831
 H        -6.6839878321       -0.0261494662        5.0349648791
 H        -6.3982208980        1.4502562287        4.1773283813
 H        -8.4412152405        5.4505651118       -0.8661984723
 H        -8.2964477320        4.0171587164       -2.0770576139
 H        -7.8156504031        5.6955231400       -2.5456116025
 H        -5.3534362604        5.7265855145       -2.9090088471
 H        -5.3781818634        3.9803072821       -2.8057808627
 H        -4.3108002020        4.9013288325       -1.8562546671
 H        -4.6445396602       11.3660121334        0.2369384092
 H        -5.9250719752       12.1990642666        1.1960473479
 H        -5.9203542135       11.9838470776       -0.6708233246
 H        -7.4872725668        9.0461067143        2.0546475013
 H        -7.7418558523       10.6942241151        2.1813080183
 H        -6.2069472103        9.9684353181        2.7985601076
 Na      -10.2951940681        1.7430759140        0.0054356490
