117

 C       -16.3720529992        7.8091240106        4.7373552331
 C       -15.1178622161        7.4183997950        3.9179125987
 O       -14.8052934763        6.2876987935        3.6866674899
 C       -14.1090105661        8.4413499005        3.4080252041
 C       -12.7352855453        8.2681919797        4.2239063486
 O       -12.3386358363        7.1553358875        4.5019277002
 C       -11.8805720987        9.5397203556        4.5964019752
 C       -10.6461904211        9.0716029307        5.4741347072
 C        -9.3914459920        8.8724875826        4.4861861182
 O        -9.4153210630        9.3035896844        3.3696918264
 C        -8.0709230492        7.9973388706        4.8395405678
 C        -8.1126839256        6.7711309940        3.9193575144
 O        -8.3991521020        6.8902012791        2.7232541210
 C        -7.5720990686        5.3544108762        4.4249626053
 C        -7.9895674637        4.2545452142        3.4661377042
 C        -9.4523976765        3.8716804578        3.4667302907
 O       -10.3593840939        4.4578172747        4.0784552182
 C        -9.9071497639        2.7045564417        2.4227564606
 C       -10.4435961242        3.7547261725        1.4401206109
 O       -11.4784798427        4.4225393679        1.5416500037
 C        -9.6778734707        4.0537018133        0.0992353146
 C       -10.3285395556        4.7235369122       -1.1195139092
 C        -9.4938708972        4.5145821169       -2.3496539411
 O        -8.2589047824        4.3098314661       -2.3047800054
 C       -10.2865012330        4.5396585087       -3.7369158685
 C       -11.3171683754        3.2470639267       -3.7717405774
 O       -12.2749746058        3.3015640409       -3.0161575999
 C       -11.1548467926        2.0159591349       -4.6659232199
 C       -10.3195857305        0.9205304628       -4.0395068515
 C       -10.6704145326       -0.4321501654       -4.6843521045
 O       -11.5827728754       -0.4466587976       -5.5145845193
 C       -10.0699632412       -1.8774265074       -4.4555622345
 C        -9.0443456399       -1.8734340204       -3.1599960463
 O        -8.3377104364       -0.9023243041       -3.1138832411
 C        -9.0112438521       -2.9077979405       -1.9573288622
 C        -7.6947767391       -3.6477561948       -1.7944175088
 C        -6.2981158938       -2.8500757685       -1.8583051758
 O        -6.1202164737       -2.0033436270       -1.0215540748
 C        -5.2834600264       -3.1257583553       -2.9075543671
 C        -5.7254563880       -2.1140711576       -4.1873830401
 O        -6.3731744660       -2.6173585685       -5.0567909490
 C        -5.0506696916       -0.7517347994       -4.3218706504
 C        -3.8941117380       -2.8895865732       -2.1061101929
 C        -5.2273266477       -4.4808827745       -3.5618301309
 C       -11.1748853485       -2.8571275204       -4.0829305786
 C        -9.1822612399       -2.2638856432       -5.7658757464
 C       -11.1469880449        5.8016635983       -3.9183523876
 C        -9.1984101806        4.3519133946       -4.8427179945
 C        -8.6851372708        1.8282182631        1.9259391781
 C       -11.1692278361        1.8604302561        2.9335083690
 C        -6.9587720540        9.0796097070        4.4376284776
 C        -7.9752553928        7.6802128419        6.3012673122
 C       -13.6284541457        8.1975254720        1.9105128158
 C       -14.6469598426        9.9503982536        3.4444070497
 H       -16.5671407169        6.9311139475        5.3922973525
 H       -17.4095093457        7.9526369373        4.1630013724
 H       -16.4332183779        8.7185544446        5.3622364642
 H       -12.5932572046       10.2734362600        5.0886222210
 H       -11.4743065714        9.9760003355        3.5854258627
 H       -10.7519159150        7.9749073875        5.8506060772
 H       -10.4922730228        9.7036245405        6.2973974828
 H        -7.9374425027        5.1543976034        5.4565649612
 H        -6.5594161749        5.3670547073        4.4705449178
 H        -7.4469816707        3.2918443919        3.5547532506
 H        -7.7621896408        4.4464814272        2.3746769157
 H        -9.0212075457        3.2565789198       -0.1589411229
 H        -8.7822861526        4.7775910147        0.4684102030
 H       -10.2226582327        5.7663611051       -0.7619272158
 H       -11.3833070090        4.4577792388       -1.2675549578
 H       -10.5880297757        2.1824351619       -5.5938172199
 H       -12.0663248416        1.6779711961       -5.0422691289
 H       -10.5653637531        0.8903424271       -2.9724119277
 H        -9.2597110853        1.1634571015       -3.9498473683
 H        -9.9536337203       -3.5172040630       -1.9508958208
 H        -8.9760303592       -2.2794033247       -1.1121958350
 H        -7.4950437321       -4.4112009991       -2.4929584940
 H        -7.7328182219       -4.0931617823       -0.7428518580
 H        -4.0669164921       -0.9762504580       -4.5672393467
 H        -5.1567244761       -0.2488909507       -3.3388540142
 H        -5.4852833103       -0.1615856343       -5.1048189572
 H        -3.8634533188       -1.8425971728       -1.7268484291
 H        -3.0953255394       -2.9647030779       -2.7668260549
 H        -3.6296915059       -3.5669934534       -1.2379367581
 H        -5.2115576574       -5.1460497301       -2.7403363957
 H        -4.3975411445       -4.6987736936       -4.1842713485
 H        -6.1539922299       -4.7048325423       -4.0213251792
 H       -11.4328333801       -2.8245211407       -2.9946389887
 H       -10.9516825858       -3.8741823697       -4.4042625474
 H       -12.1121892494       -2.6116380338       -4.4563372261
 H        -8.1839728425       -1.8272304908       -5.8073332416
 H        -9.7877764755       -1.8417788226       -6.6547694869
 H        -9.3047855647       -3.3691351314       -5.7621721423
 H       -11.4219376623        5.8711024552       -4.9564031640
 H       -10.6488350763        6.7952527000       -3.5338525739
 H       -12.1050282722        5.6541899464       -3.4510565537
 H        -8.4992959879        3.5011675303       -4.7277256769
 H        -8.5483079587        5.2496969318       -5.0279945217
 H        -9.6221579866        4.2385497682       -5.8650110664
 H        -8.8213184511        1.1881297788        1.0083180060
 H        -8.0943233180        1.2779795606        2.6804236610
 H        -7.9072051655        2.4655462218        1.6327063837
 H       -11.1266461184        1.3057115773        3.9478740043
 H       -11.3029691787        1.0454473137        2.2602092126
 H       -11.9799649313        2.6766085598        2.9563627985
 H        -7.2241471433       10.0775064808        4.8921624024
 H        -6.6718389525        8.9590304567        3.4002742267
 H        -6.0552335716        8.7080239279        4.8982229869
 H        -8.6524149386        6.9069503035        6.4923374431
 H        -8.2500919637        8.4582433898        7.0850004806
 H        -6.8591355909        7.4526996198        6.5916498818
 H       -13.4062671575        9.1498210523        1.3847304999
 H       -14.5372118771        7.8351449853        1.4923819332
 H       -12.8190199386        7.4651629712        1.8953533283
 H       -15.6620014203        9.9943165911        3.1415884843
 H       -13.9512234649       10.4594992072        2.7844029038
 H       -14.6820130162       10.4412029440        4.4072032613
 Na      -12.6985120253        5.4213556006        3.2048700666
