117

 C       -16.2488035745        7.8776979617        4.5302585859
 C       -15.0095996858        7.4671461409        3.8264120567
 O       -14.7538507767        6.3203067054        3.7074036307
 C       -13.9109698558        8.5321915399        3.2539054767
 C       -12.5918289396        8.3630673197        4.0353144453
 O       -12.1544985375        7.3351599053        4.5330445537
 C       -11.8399726244        9.6401331665        4.3516274184
 C       -10.3866164009        9.4065281390        4.9979876292
 C        -9.1748476465        9.0511236365        4.0685323904
 O        -9.1707505716        9.4128833185        2.8846778592
 C        -8.0690877641        8.0749637459        4.6294149279
 C        -8.2466870488        6.6805580863        3.7781846660
 O        -8.4970979843        6.5978794446        2.5876910152
 C        -7.7396397610        5.4020498322        4.5314718483
 C        -8.1078486298        4.0683414254        3.8251829760
 C        -9.5182318353        3.8889301833        3.6511387042
 O       -10.2884995592        4.6447890265        4.1902785347
 C       -10.1115464052        2.9334542476        2.4366254256
 C       -10.5317935777        3.9746033162        1.2660355742
 O       -11.4519269230        4.7679259376        1.3930225327
 C        -9.6096616140        3.9716482159        0.1044151600
 C       -10.1593857137        4.6078975679       -1.1740896670
 C        -9.3823704471        4.2808854905       -2.4562074289
 O        -8.2585412982        3.7765334219       -2.2939785520
 C       -10.1132764308        4.4887254900       -3.8221943276
 C       -11.2649340582        3.2167242130       -3.7220354638
 O       -12.2222589927        3.2466569852       -2.9369390086
 C       -11.1045767584        2.0177724642       -4.5257517003
 C       -10.6593062984        0.7795389981       -3.7522890467
 C       -10.9589112155       -0.4749232274       -4.6498891994
 O       -11.6759302098       -0.3584465107       -5.6642209818
 C       -10.2012313299       -1.9282461385       -4.1585097208
 C        -9.1023589998       -1.7898089944       -3.1170288098
 O        -8.2200798771       -1.0130419189       -3.4575960177
 C        -9.0868964705       -2.6338244307       -1.8289138535
 C        -7.9197524142       -3.5732406251       -2.1702676313
 C        -6.6357616934       -2.7771192405       -1.7867319087
 O        -6.7053733549       -2.0190249746       -0.8600546933
 C        -5.3053315370       -3.0294561423       -2.6747865705
 C        -5.6664174683       -2.3815271363       -4.1020773520
 O        -6.2474556236       -2.9930232865       -4.9557633811
 C        -5.1093388764       -0.9855981852       -4.2853802689
 C        -4.0348444193       -2.3766013737       -2.1862006681
 C        -4.9581017462       -4.5171632138       -2.5326004315
 C       -11.3626991191       -2.8313081153       -3.6893733948
 C        -9.3964536877       -2.4615790067       -5.4187924201
 C       -10.8478510824        5.8891646555       -3.9469349294
 C        -9.0403715491        4.4371032946       -4.9430693297
 C        -8.8976627508        2.0213797580        2.0375811901
 C       -11.3363101564        2.2911267370        2.9798694623
 C        -6.5836902735        8.3950431333        4.3764502666
 C        -8.3383543211        7.7118102747        6.1210453395
 C       -13.6899405195        8.0825505567        1.6671972341
 C       -14.3923565126       10.0229427084        3.2112794066
 H       -17.0285288415        8.3824006135        4.0224815857
 H       -15.9843406847        8.5410955722        5.4173752895
 H       -16.6714182066        7.1436735942        5.0938357940
 H       -12.5134462209       10.2172214291        4.8154348973
 H       -11.6547429320        9.9631101160        3.3801435208
 H       -10.6171070570        8.5625641220        5.6598759547
 H       -10.2180732691       10.2745638739        5.6393709640
 H        -8.2903809603        5.3433293480        5.5674626691
 H        -6.6351631003        5.3804682242        4.5778220813
 H        -7.5229729339        3.2129083710        4.1847415327
 H        -7.8036451302        4.2450694750        2.7041682673
 H        -9.2578557169        3.0904077913       -0.1382830590
 H        -8.7201415681        4.3946133094        0.5187949863
 H       -10.1575397438        5.7347640446       -1.0319028904
 H       -11.1408916094        4.2623186142       -1.4490242329
 H       -10.4753868037        2.0941077245       -5.5236235502
 H       -12.0820748478        1.6324729401       -5.0208158851
 H       -11.0930483865        0.8563337976       -2.7699452037
 H        -9.5322764046        0.7274352635       -3.5132493707
 H        -9.9300543011       -3.3607852342       -1.6623545517
 H        -8.9158538367       -1.8715879198       -1.0286972768
 H        -7.9165641319       -3.9418424146       -3.2364997432
 H        -7.9481656145       -4.4647502304       -1.4535259324
 H        -4.0964311694       -1.2764352527       -4.6348617676
 H        -5.1801301284       -0.4186175518       -3.2751443580
 H        -5.5969373365       -0.3019672332       -4.9649891721
 H        -4.2302761670       -1.3390454142       -1.9001489040
 H        -3.2322413035       -2.3400448751       -2.8740276480
 H        -3.6619391980       -2.8619596655       -1.2644386929
 H        -5.2811524684       -5.0305320952       -1.5716259529
 H        -3.9283547514       -4.4232181736       -2.7360701472
 H        -5.4106554179       -5.2830149483       -3.2745598892
 H       -12.0241558164       -2.2488720653       -3.0547745874
 H       -11.0883755606       -3.7453265333       -3.1583442924
 H       -12.1039427417       -3.0706889570       -4.4622317488
 H        -9.2295771296       -3.4368489931       -5.1201376466
 H        -8.3208292577       -2.1605762987       -5.4102156822
 H        -9.9524446988       -2.4267177777       -6.3222868575
 H       -11.6661830119        5.7187407436       -4.5888654362
 H       -10.1225177264        6.6192208892       -4.4325265571
 H       -11.1793171175        6.3145369761       -3.0713951604
 H        -8.5556018040        3.5110004278       -4.9605860158
 H        -8.2784794842        5.1559209496       -4.7789177517
 H        -9.3368401112        4.6662066301       -5.9269548830
 H        -8.8823232053        1.1324127949        1.4266881644
 H        -8.3371411245        1.7442845356        2.8640149964
 H        -8.1784717784        2.6202896216        1.5601517595
 H       -10.9546584989        1.4839016059        3.6158854207
 H       -11.9208096827        1.8215571409        2.2723668043
 H       -12.0057578572        2.9366008253        3.5924133935
 H        -6.1095314239        8.8518464214        5.2160617906
 H        -6.6194447839        9.1493317951        3.5831737128
 H        -6.1266236488        7.5832643598        3.8706036466
 H        -9.2258774364        7.2737929783        6.2488184531
 H        -8.3363140319        8.6320773329        6.6679646291
 H        -7.5474421788        7.2056292237        6.6625699248
 H       -12.7575759261        8.5661826095        1.3720988230
 H       -14.3829382699        8.6840189947        1.0028798453
 H       -13.8238878184        6.9770773255        1.6270643401
 H       -15.0878568808       10.3410797319        2.3782431791
 H       -13.5249619987       10.5896654866        2.9264251463
 H       -14.8736628961       10.2715166318        4.2208812163
 Na      -12.4841524849        5.1339755163        3.5400405481
