117

 C       -16.1602666814        7.9294447677        4.5208469534
 C       -14.9000759511        7.4991016373        3.7228382511
 O       -14.5504646487        6.3309871855        3.8023329651
 C       -13.9146233742        8.5867547920        3.1097382198
 C       -12.5408526554        8.3849376591        4.0311851071
 O       -12.1458157367        7.2308881463        4.3520114715
 C       -11.6377914133        9.6900391391        4.1918609835
 C       -10.2740498616        9.5039529575        4.8381279163
 C        -9.1489088083        8.9891942799        3.8308320739
 O        -9.0458988492        9.5160322079        2.7875915285
 C        -8.1434570018        8.0455392912        4.5097174131
 C        -8.2579062638        6.5313428824        3.8748164507
 O        -8.5648020553        6.4182283724        2.7374972370
 C        -7.7462283870        5.3181957389        4.6351516130
 C        -8.0098059326        4.0547690056        3.8792314911
 C        -9.5109465800        4.0374084072        3.5950189212
 O       -10.3591232589        4.6619960200        4.3213623946
 C       -10.1369246601        3.0150991993        2.5222041739
 C       -10.4881461626        4.0110733555        1.3027780486
 O       -11.4839456275        4.7179269528        1.4468014520
 C        -9.6480412377        3.9972298360       -0.0052619456
 C       -10.1145843353        4.7888459108       -1.1427597569
 C        -9.3349993176        4.2432720018       -2.4411613319
 O        -8.2593431167        3.6590250284       -2.4121385531
 C       -10.0462855265        4.3851610937       -3.7905157883
 C       -11.2282461028        3.2553115464       -3.7658192079
 O       -12.1429680502        3.4011786159       -2.9972591082
 C       -11.0552860967        2.0482299375       -4.6473138607
 C       -10.7462138929        0.7841713046       -3.8541118404
 C       -10.8952380867       -0.5683685878       -4.6598159940
 O       -11.6162814432       -0.4435082957       -5.5743565624
 C       -10.3586674730       -1.9270134085       -4.2099152394
 C        -9.2265370630       -1.6326126353       -3.1343198301
 O        -8.3099326745       -0.8753745417       -3.4071116128
 C        -9.0887455609       -2.5520216449       -1.9359739879
 C        -7.9629352212       -3.5919835574       -2.0622505294
 C        -6.6299904544       -2.8147331439       -1.7798537756
 O        -6.6053958637       -2.0125174048       -0.8750946539
 C        -5.2548739316       -3.0272812800       -2.5866908789
 C        -5.5123371682       -2.5426394484       -4.0509703596
 O        -6.2305212347       -3.2025684668       -4.7764683446
 C        -5.1893899906       -1.0775498061       -4.3379443948
 C        -4.2060802100       -2.1024294321       -1.8784613290
 C        -4.9387601110       -4.5363743408       -2.5055278509
 C       -11.4770593191       -2.7867420184       -3.6312064214
 C        -9.6136675564       -2.5644646111       -5.4955525215
 C       -10.8422292209        5.7288559418       -3.8613128371
 C        -9.1106283679        4.2474480275       -4.9344257549
 C        -9.1619114327        2.0034057148        2.0473599370
 C       -11.4730109621        2.3293644460        2.9876709450
 C        -6.6769916797        8.5469087261        4.3521373669
 C        -8.3443942930        7.9162635544        6.1244766471
 C       -13.4177107865        8.0580867065        1.7361103875
 C       -14.5107981212       10.0237076925        3.1419478224
 H       -16.5211039765        8.9004145290        4.2236493602
 H       -16.2634620121        7.8475223739        5.6410060701
 H       -17.0468468045        7.3113183200        4.2914935580
 H       -12.3674039117       10.2529684516        4.8366854581
 H       -11.5529919071       10.1037378240        3.2101645862
 H       -10.5878582418        8.8866483560        5.7124915384
 H       -10.0410988783       10.4378826153        5.2035723757
 H        -8.2803961833        5.1840962238        5.5636532123
 H        -6.7107996008        5.4462586608        4.7636705138
 H        -7.7140453704        3.1430153500        4.4938901851
 H        -7.4616875168        4.0068320926        2.8914597277
 H        -9.5880284063        2.9775088564       -0.4594594744
 H        -8.5714165217        4.1082269960        0.2654976082
 H        -9.9618012975        5.8618248217       -1.1119681810
 H       -11.1166993589        4.5263409979       -1.4316030641
 H       -10.2343077175        2.1618085990       -5.4169373838
 H       -11.8712130704        1.7526487275       -5.3200916913
 H       -11.4842449750        0.7361776264       -2.9731676166
 H        -9.8120210498        0.9734838593       -3.2950716994
 H        -9.9678493908       -3.0737286325       -1.4747103509
 H        -8.6945526594       -1.7625568125       -1.3044251112
 H        -7.7855463058       -4.0695427664       -3.0178293767
 H        -7.9525052388       -4.4038194257       -1.2227317953
 H        -4.1404651901       -0.8412229231       -4.4681816746
 H        -5.7647286678       -0.5312114312       -3.6617979251
 H        -5.7041650798       -0.8315693589       -5.3345824851
 H        -4.5701953496       -1.0543970533       -1.7804953899
 H        -3.3004256303       -2.0259496357       -2.4121042276
 H        -3.9208308571       -2.4441179790       -0.8341999954
 H        -5.0360628802       -4.7689889352       -1.5031429091
 H        -3.9008905868       -4.6628983588       -2.9305761948
 H        -5.5898286656       -5.2436207851       -2.9621370366
 H       -11.7803492487       -2.2767722471       -2.6781977137
 H       -11.1838233049       -3.7859057949       -3.3736637360
 H       -12.3589003431       -2.8008120034       -4.1031853336
 H        -9.8722203393       -3.6683458464       -5.6300089842
 H        -8.5929295311       -2.7587796934       -5.1825217573
 H        -9.7435104799       -1.9835173723       -6.4184292893
 H       -11.5489932582        5.6755112086       -4.6676649617
 H       -10.1489497424        6.5636439840       -3.9758967448
 H       -11.3199946307        5.8639678015       -2.9026992547
 H        -8.5021110463        3.4299606258       -4.7184747992
 H        -8.4966485923        5.0995811560       -4.9572446646
 H        -9.4335061549        4.1712570647       -6.0007909857
 H        -9.6032276908        1.3778109946        1.2988862752
 H        -8.9317629896        1.2685525604        2.8174978266
 H        -8.2934773015        2.2882328232        1.5893731123
 H       -11.3655494294        1.3948812176        3.6456659948
 H       -12.0960387249        2.0555910207        2.1004715781
 H       -12.1503043729        3.0374495261        3.5071743738
 H        -6.3551417893        8.9082785674        5.3388480991
 H        -6.6514858988        9.4626403890        3.7742252881
 H        -6.0921989105        7.8079145141        3.8780442490
 H        -9.0883151195        7.1904073755        6.4714648211
 H        -8.5715372626        8.8862617733        6.4718028065
 H        -7.4443288813        7.6893927832        6.7254652289
 H       -12.5638096550        8.6133750059        1.3459877881
 H       -14.2089839055        8.4865313976        1.1013632969
 H       -13.4694679874        6.9668288892        1.7909231586
 H       -15.2653576881       10.4162025653        2.4768466013
 H       -13.6413509721       10.6748490511        2.8594455193
 H       -14.7503172993       10.1013273557        4.1744337752
 Na      -12.3989085655        5.0872195242        3.5669346630
