117

 C       -15.9694533951        7.8757394571        4.2599273482
 C       -14.6698447049        7.3781159527        3.7393376531
 O       -14.3992650860        6.1705622359        3.8814794500
 C       -13.7806163420        8.4444434650        3.0386537029
 C       -12.3339305356        8.5001732398        3.7888166509
 O       -11.6743779587        7.6080706976        4.2205426516
 C       -11.5769178366        9.9479851475        3.8319984820
 C       -10.2437332840        9.6285436705        4.6533838632
 C        -9.0909645448        9.0275014078        3.8723497267
 O        -8.9722753163        9.3020588169        2.6643535060
 C        -7.9861004191        8.1070159290        4.6089464324
 C        -8.2781650913        6.5456184378        4.0294010732
 O        -8.7649377109        6.3229259178        2.9298167323
 C        -7.6915400570        5.3053629060        4.8096722777
 C        -8.0586650412        3.9301418236        4.1042259912
 C        -9.6605602249        3.8540854565        3.8382691267
 O       -10.4276808103        4.5278381191        4.3971230991
 C       -10.2724940056        3.0082661218        2.6297976339
 C       -10.5878312157        3.9968976454        1.3042919043
 O       -11.4399243716        4.8638700842        1.3565472967
 C        -9.6786906674        3.8421235734        0.0898517098
 C        -9.9222132275        4.8857016834       -1.0682719430
 C        -9.2695464660        4.2369735372       -2.4609263051
 O        -8.3122912817        3.5147415486       -2.2564197977
 C       -10.0380917944        4.4111549839       -3.8405338076
 C       -11.2409721522        3.2229301986       -3.8558934832
 O       -12.2048067523        3.3484686113       -3.0826528828
 C       -11.1263017170        1.9912536087       -4.7657242366
 C       -11.0128680624        0.6547434313       -3.8522240705
 C       -11.0810113249       -0.5488190562       -4.7414082105
 O       -11.7062352465       -0.5167883016       -5.8129535923
 C       -10.4299344239       -1.9088934393       -4.2778656124
 C        -9.3091617187       -1.5989617627       -3.2049540032
 O        -8.4753654417       -0.7141079278       -3.2442138961
 C        -9.0462064228       -2.5907843698       -2.0350953657
 C        -7.8492605616       -3.5478915884       -2.0214687815
 C        -6.5991968790       -2.6210277805       -1.4133624366
 O        -6.7092888213       -1.8307338433       -0.4920565720
 C        -5.2685037450       -2.8789321645       -2.2873872092
 C        -5.5710979859       -2.6792906235       -3.8818813650
 O        -6.0622074376       -3.6098666259       -4.4551805223
 C        -5.4428691896       -1.3776220820       -4.5742979320
 C        -4.1503390851       -2.1255315474       -1.7354441959
 C        -4.7212830186       -4.3264303070       -2.3915276202
 C       -11.6739132041       -2.6180687282       -3.5199056784
 C       -10.0668769702       -2.7312707159       -5.5127936059
 C       -10.7865314833        5.8322394934       -4.0578793355
 C        -9.0142721741        4.2602455576       -5.0033074421
 C        -9.2931668743        1.8555089674        2.1779264801
 C       -11.6438355798        2.5197643505        3.0335117777
 C        -6.6124855930        8.6919763410        4.0560739335
 C        -8.1725289447        8.0129168359        6.0816926721
 C       -13.3714065315        8.0099066115        1.5249530202
 C       -14.4161264488        9.9637084402        2.9296047534
 H       -15.8675555907        8.3688668910        5.2637426776
 H       -16.6535397333        7.0201066946        4.4773668971
 H       -16.6587422979        8.5333891290        3.7513006191
 H       -12.2916721692       10.7465765387        4.0300220319
 H       -11.2507287931        9.9101170350        2.7171438152
 H       -10.5892935897        9.0234011205        5.5127904372
 H        -9.9973341286       10.6259541291        5.1973807661
 H        -8.1975559290        5.1874888767        5.7957088344
 H        -6.6050907246        5.4634036176        4.8317931474
 H        -7.7996227628        3.1374949304        4.7428733271
 H        -7.5291435128        3.8016974761        3.1866325881
 H        -9.8308112487        2.8704391987       -0.4381570316
 H        -8.6163217106        3.7232005740        0.4282070679
 H        -9.4672637668        5.9006899912       -1.0604068776
 H       -10.9739097117        4.9307227233       -1.4120399218
 H       -10.3179657031        1.9271858552       -5.4827131579
 H       -12.0627177248        1.8857193919       -5.2548014679
 H       -11.7780636412        0.5260787558       -3.1381965559
 H       -10.1379956272        0.7710253986       -3.2011893288
 H        -9.8919603729       -3.2181336245       -1.9616817433
 H        -8.9312752164       -2.0803450003       -1.0730855915
 H        -7.4500173830       -4.0253873002       -2.9068301471
 H        -7.9274049171       -4.2762677047       -1.3006402079
 H        -4.7589718933       -0.7075914670       -4.0804017562
 H        -6.5078210513       -0.9963837896       -4.6625267489
 H        -5.1520213775       -1.4727214730       -5.5486507335
 H        -4.2001898034       -1.0437788677       -1.8006174323
 H        -3.1473149720       -2.4872178412       -2.0848277950
 H        -4.1638209033       -2.3149600159       -0.6890669630
 H        -4.3372685178       -4.4923438819       -1.3154739956
 H        -4.0574249990       -4.4938672333       -3.1632859337
 H        -5.5171443615       -5.0982588734       -2.6662376176
 H       -11.9817571473       -2.2693353125       -2.5558347747
 H       -11.4643389721       -3.7067569284       -3.2887588950
 H       -12.6587585853       -2.6563783045       -4.1329054479
 H       -10.8216250508       -2.7153735881       -6.2394654283
 H        -9.9425287445       -3.8487833543       -5.3391921387
 H        -9.1706540292       -2.1858912192       -5.9328261650
 H       -10.5049937078        6.2267538263       -5.0631807958
 H       -10.3107529115        6.4646885927       -3.2552433122
 H       -11.8343922867        5.7986333615       -3.8012438548
 H        -8.4048965210        3.2803938897       -4.9008612188
 H        -8.2556855899        5.1657412045       -5.1611020878
 H        -9.4594645017        4.1115397256       -6.0202069361
 H        -9.5981406610        1.2447005856        1.2526869446
 H        -9.0934489390        1.0236610390        2.8693563827
 H        -8.3358648890        2.2667633136        1.7123351154
 H       -11.5230644644        1.6203308235        3.5956649242
 H       -12.1370183200        2.2582576068        2.1424126356
 H       -12.4140911956        3.1549441139        3.5079795385
 H        -6.2139523278        9.5017048503        4.6758441754
 H        -6.8948872969        9.2907968533        3.1553893869
 H        -5.8548346977        7.8573825455        3.8925597047
 H        -9.1770462578        7.6895709545        6.3102234079
 H        -7.8589296602        8.9155784254        6.7759575343
 H        -7.6461443004        7.0881968872        6.4335170545
 H       -12.9607663001        8.9414065696        1.1958228002
 H       -14.1397444890        7.7442923340        0.8057153500
 H       -12.6249338946        7.2123116904        1.6605138457
 H       -15.4227476493        9.7095397701        2.6360169915
 H       -14.1463845830       10.4483267347        2.0701968116
 H       -14.4294792802       10.5642516775        3.8621620567
 Na      -12.4359186048        5.3469363311        3.4934993046
