117

 C       -16.0053363045        7.7884786126        4.2499072603
 C       -14.6706824703        7.3875000056        3.6481594123
 O       -14.3118974748        6.2520567418        3.8329550916
 C       -13.5787648741        8.4048954775        2.8450190091
 C       -12.1145209763        8.6510003511        3.5777295143
 O       -11.7009127242        7.5954973024        4.0844435521
 C       -11.3413674407       10.0003987574        3.7358160863
 C       -10.0614436078        9.8896186216        4.6646079893
 C        -9.0176771676        8.9968545744        3.8391984869
 O        -9.1099477595        9.1254518658        2.6500710350
 C        -8.0144819397        7.9683101195        4.5670057699
 C        -8.2749136037        6.6127265272        3.9505581186
 O        -8.8904603621        6.4586897653        2.9363475447
 C        -7.8249187835        5.3026478437        4.7677025212
 C        -8.3004661707        3.9731263827        4.1677014449
 C        -9.6969740031        3.9705222441        3.7790990146
 O       -10.5100761002        4.4700508382        4.5563774429
 C       -10.2996690242        3.0538883243        2.5510952889
 C       -10.3816190413        4.0494057037        1.3239172495
 O       -11.3502022915        4.8514173162        1.4958455219
 C        -9.6944461178        3.7959922360        0.0398864455
 C        -9.9995160984        4.7996697655       -1.0825023202
 C        -9.3782803772        4.1685454969       -2.4401367624
 O        -8.3613862122        3.4885112982       -2.3805975238
 C       -10.1010506335        4.3789614941       -3.7796021841
 C       -11.2183705789        3.2558421047       -3.8439976155
 O       -12.1717895855        3.3640433761       -3.0965751886
 C       -11.1776897628        2.0800524426       -4.7583001001
 C       -11.2046054717        0.7416406432       -3.9284654560
 C       -11.2142965525       -0.5156536213       -4.8031003998
 O       -11.7086024891       -0.4233411539       -5.9061759688
 C       -10.5347412453       -1.9017800901       -4.2657973854
 C        -9.3487956440       -1.7938651885       -3.3114694567
 O        -8.6705192050       -0.8155790994       -3.3851536375
 C        -9.1847059766       -2.7284720870       -1.9400590620
 C        -7.8447102258       -3.4066784911       -1.8900912535
 C        -6.6207065831       -2.6250630755       -1.4446004750
 O        -6.7421759698       -1.9449961913       -0.4785375104
 C        -5.1822990667       -2.8653873359       -2.1856103465
 C        -5.6579643114       -2.7213760337       -3.7908857584
 O        -6.0110298521       -3.7260711447       -4.3289714107
 C        -5.5522902834       -1.4236663994       -4.5659856562
 C        -3.8566417024       -1.9089094594       -1.8525230644
 C        -4.7729113310       -4.3607911122       -1.9491919537
 C       -11.7587646310       -2.5476633602       -3.4170325795
 C       -10.0516212528       -2.8001683731       -5.3584287725
 C       -10.6265249522        5.7581589142       -4.0327741905
 C        -8.9602022515        4.2939324274       -4.8495733496
 C        -9.3248835994        1.9306011501        2.2941335022
 C       -11.7374302533        2.4420293528        3.0635163315
 C        -6.6151193451        8.4095487610        4.0392749923
 C        -7.9446888996        8.1546182610        6.0897452589
 C       -13.4491689081        7.8633878456        1.4535471892
 C       -14.2703316729        9.7552071258        2.8196522804
 H       -15.9846151663        7.5883146767        5.2765689023
 H       -16.8494761866        7.1246717706        3.8743346622
 H       -16.4359225062        8.7213518312        4.2166400856
 H       -12.1347494856       10.5967871613        4.0002249005
 H       -11.0832243414       10.1914146877        2.7371998896
 H       -10.5470543786        9.5342556692        5.6473908477
 H        -9.8737628451       10.9364417849        4.9292007208
 H        -8.3694747425        5.3836961523        5.8150122051
 H        -6.7007883804        5.2430335476        4.8053476275
 H        -8.1561007129        3.1428393284        4.8176993676
 H        -7.7303822512        3.8348690726        3.2100140955
 H        -9.9284174512        2.8575726611       -0.2417694204
 H        -8.6195038342        3.7603271748        0.1521796536
 H        -9.3755128687        5.7502285343       -0.9360846482
 H       -11.0054118304        5.0573080798       -1.3792739285
 H       -10.1715754877        1.9986405011       -5.3707895074
 H       -12.1141064474        2.1389943939       -5.4134939523
 H       -12.0384190176        0.6508459209       -3.3094355853
 H       -10.4050807811        0.9659397318       -3.1952954091
 H        -9.8666650826       -3.6233376678       -2.0842314796
 H        -9.4465582113       -2.2352223434       -0.9833432760
 H        -7.5078372472       -3.8343431741       -2.8046826785
 H        -7.6818580562       -4.2567316801       -1.1653613657
 H        -5.1681000784       -0.7272117184       -3.8300109675
 H        -6.4753944727       -1.1164078021       -5.0721979164
 H        -4.7631783593       -1.4473234962       -5.3995202170
 H        -4.1323085721       -0.8611304830       -2.0240998054
 H        -2.9615472345       -2.1899834499       -2.2673434192
 H        -3.7278352999       -1.8931809607       -0.7341926338
 H        -4.3698695542       -4.3874859493       -0.9041033759
 H        -3.9504131297       -4.5777670517       -2.7284089099
 H        -5.4387845271       -5.2241840109       -2.2788931052
 H       -12.1302492139       -1.9361002316       -2.5077509502
 H       -11.5286270229       -3.5195382311       -2.8678240197
 H       -12.6103364451       -2.7965209367       -3.9695186057
 H       -10.1909179222       -2.3188172538       -6.3055956818
 H       -10.6387841851       -3.7101018473       -5.4770074681
 H        -8.9941999356       -2.9453685475       -5.2587157638
 H       -10.1152471667        6.0920325313       -4.8934192626
 H       -10.4306727736        6.5036719263       -3.1628129100
 H       -11.6683910652        5.6971167962       -4.1464293382
 H        -8.5032650956        3.3318681474       -4.9044448606
 H        -8.1870973479        5.0540415349       -4.7797728780
 H        -9.3837531238        4.3569991078       -5.9155904586
 H        -9.5189360614        1.0725471701        1.5930454655
 H        -8.9332355962        1.4030560151        3.1792315535
 H        -8.5530111386        2.3512729378        1.7784323676
 H       -11.4968574723        1.6697698357        3.7398472533
 H       -12.3366659361        2.0883722646        2.3180085965
 H       -12.4072479755        3.1492346242        3.4907972483
 H        -6.4453602159        9.4552046887        4.4261861446
 H        -6.4411479059        8.5726900365        2.9535221570
 H        -5.9950982906        7.7426022684        4.6254220773
 H        -8.8140987918        7.7992276087        6.5198403846
 H        -7.7212918285        9.1190220872        6.4612690543
 H        -7.2093989413        7.3776462555        6.4195607715
 H       -13.2346069177        8.7041944520        0.7524883426
 H       -14.4451159672        7.4585128240        1.1711793598
 H       -12.7442682189        7.0116695498        1.4511715776
 H       -15.2840797860        9.6550860213        2.3259299390
 H       -13.7443194624       10.5575188976        2.2643468337
 H       -14.4010282355        9.9955842505        3.8967966767
 Na      -12.2755750636        5.5959090579        3.4108205656
