117

 C        -7.6663616503       10.1258254795       -1.9920307767
 C        -7.8636139654       10.0361172316       -0.4094798073
 O        -8.9044099127        9.6796802229        0.0987355471
 C        -6.5438420923       10.2491195125        0.4321369070
 C        -5.5147966876        9.0831112380       -0.0686287233
 O        -5.2640077751        9.0369971369       -1.2618602866
 C        -4.8521967068        8.0693515943        0.9697872015
 C        -4.7679779387        6.6622057678        0.1514209715
 C        -6.2132906888        6.1844259667       -0.3186119885
 O        -7.1962830174        6.8527813019       -0.1698464581
 C        -6.3527423609        4.8666146552       -1.1915769228
 C        -6.0356872763        3.6577635994       -0.2665863174
 O        -4.9036932295        3.3773606173        0.1106044291
 C        -7.1581850901        2.8629713662        0.3057525372
 C        -6.8493601218        2.0944524362        1.7006622626
 C        -7.8246431190        0.9177660454        1.9210042184
 O        -8.6859198380        0.5677399237        1.1171765908
 C        -7.6838325787        0.1114136756        3.2333530680
 C        -8.9453454959        0.6418669944        4.1173131988
 O        -8.6329110553        1.5656442671        4.8029730329
 C       -10.4026823667        0.1218745564        3.9391272820
 C       -11.4346532280        1.1789140975        4.3102358954
 C       -11.1993229553        2.3177893696        3.2288027543
 O       -10.1656479457        2.4947494658        2.6098810653
 C       -12.3658871943        3.3569487860        2.9742956557
 C       -13.0740445467        2.9056979196        1.6028579801
 O       -12.4275084418        2.5085080373        0.6397199079
 C       -14.5537553535        3.2173480938        1.4353082774
 C       -15.0666862447        2.6362199255        0.0810036037
 C       -14.5269010392        3.6045108470       -0.9735690923
 O       -13.9176686605        4.6000848941       -0.7027416361
 C       -14.8990158430        3.3419922520       -2.6383097422
 C       -13.6129259768        2.7651405089       -3.2930706901
 O       -13.6968581457        1.7077163928       -3.9272016334
 C       -12.3012822414        3.5275871784       -3.1434458405
 C       -11.1928588240        2.8534584890       -3.9337709586
 C       -10.3955900702        1.7638834198       -3.1642184200
 O        -9.6396868973        2.1612605214       -2.2677436144
 C       -10.6142921196        0.2728731920       -3.3184268044
 C       -11.7085834739       -0.1431394848       -2.2611712010
 O       -11.7670246251        0.3605788676       -1.1294373093
 C       -12.8733062411       -1.2294000766       -2.6844781659
 C       -10.9767550949       -0.1370686041       -4.7758894964
 C        -9.3157654456       -0.3918845708       -2.8720719521
 C       -16.0723080412        2.4214828722       -2.7209239187
 C       -15.2289374237        4.7109228278       -3.2216098187
 C       -13.3427016725        3.4709433893        4.1728278216
 C       -11.6958059328        4.7007255440        2.7002119876
 C        -7.7057167314       -1.3953419245        2.9573906481
 C        -6.3951447649        0.4611935563        4.0213395491
 C        -7.8918566790        4.7726230662       -1.6338501144
 C        -5.4228580161        5.1050524374       -2.3944163077
 C        -5.8822641272       11.6700430685        0.2231155853
 C        -6.9074092193       10.1861454101        1.8782580199
 H        -8.5720747076       10.4484105778       -2.5238597801
 H        -7.7172964143        9.1269930140       -2.2053883965
 H        -6.7568661657       10.4826995803       -2.4106326775
 H        -5.4155239247        7.9404666729        1.9303784247
 H        -3.7906101898        8.4338139425        1.1052534253
 H        -4.3935712442        5.8546323464        0.7189249980
 H        -4.1802499381        6.9105940988       -0.7314920908
 H        -7.6240599600        2.2288390135       -0.4278313585
 H        -7.9752176513        3.4774276561        0.6932276753
 H        -6.8725431171        2.8564583350        2.5360146264
 H        -5.8703757703        1.6703544804        1.5738853379
 H       -10.5453789836       -0.6763343706        4.6720591999
 H       -10.5492393750       -0.2668228366        2.9407307079
 H       -11.2626450965        1.5631974449        5.2952396027
 H       -12.4762794744        0.7294255293        4.2066425981
 H       -14.5490212937        4.3127662730        1.4290794314
 H       -15.0387749358        2.7610944624        2.3312590546
 H       -16.1336582545        2.3892805647        0.0064014658
 H       -14.6044236565        1.7047860809       -0.2360473210
 H       -12.0172484081        3.7309490585       -2.1017706870
 H       -12.6125204403        4.5092025923       -3.4804300532
 H       -10.4252326492        3.6862790449       -4.2138481405
 H       -11.6929539834        2.4045921173       -4.8615343905
 H       -13.7641197688       -0.9330478090       -2.2039027316
 H       -12.5020568065       -2.2299173124       -2.4744987875
 H       -13.0236812523       -1.1624399110       -3.7359868781
 H       -10.2555529165        0.1341624975       -5.4719785853
 H       -11.8461397043        0.3543264016       -5.1443669407
 H       -10.8321991720       -1.1944544561       -4.6828528485
 H        -9.1190093511       -0.1552710225       -1.8388880683
 H        -8.4526641502       -0.1392501283       -3.5366197293
 H        -9.4654017437       -1.4539910485       -3.0243879018
 H       -16.0129463751        1.6091413875       -1.9993812816
 H       -16.1495460193        1.8658681870       -3.6595398092
 H       -17.0664229752        2.9952522302       -2.6150904208
 H       -15.6895344173        4.6525660306       -4.2358624638
 H       -14.3308053901        5.3686591914       -3.2841333909
 H       -15.9199653585        5.3142077938       -2.6075141137
 H       -12.9014294983        3.8187186573        5.1218045343
 H       -13.9626933087        2.5473952365        4.2600582576
 H       -14.0193368696        4.3827365148        4.0407305430
 H       -10.9782227988        5.0266840212        3.4402168370
 H       -12.5407739654        5.4443973203        2.6071877282
 H       -11.2128495690        4.6007455670        1.7000430141
 H        -8.1013258988       -2.0012660104        3.7645820048
 H        -6.7466628821       -1.8791469686        2.5753332614
 H        -8.3058273869       -1.5335059305        2.1083860978
 H        -5.5656492130        0.1305597627        3.3664002142
 H        -6.4102198473       -0.0576996221        4.9943007543
 H        -6.2876536464        1.5063519301        4.2134658909
 H        -8.4453324375        5.1520712374       -0.7158021274
 H        -8.1371392713        3.7338900080       -1.8096145611
 H        -8.0153793949        5.3738383313       -2.5385529225
 H        -5.6390922395        5.9980418113       -2.9212003689
 H        -5.4354452554        4.3270659417       -3.1342410452
 H        -4.3644257062        5.1682785554       -2.1024060389
 H        -4.8475655745       11.4980872296        0.6004610597
 H        -6.4386565092       12.4229494722        0.8096645938
 H        -5.8003252793       11.7465289071       -0.8351080183
 H        -7.3659563104        9.2391034343        2.1965583179
 H        -7.7245302184       10.8890345581        1.9526604037
 H        -6.0921825870       10.3982942066        2.5905285918
 Na      -10.1784309962        1.6673209631        0.0822930710
