117

 C       -15.8404715696        7.7962661823        4.1258730108
 C       -14.4596917893        7.4537103574        3.7480572547
 O       -14.1769284884        6.2762870643        3.7122490234
 C       -13.5734234601        8.4349679016        2.8325006454
 C       -12.1087962709        8.5915452870        3.5279660227
 O       -11.5351052208        7.6297744259        4.0064650645
 C       -11.3295151693       10.0005334080        3.6981309253
 C       -10.0518577055        9.8827965968        4.5037814243
 C        -9.0975086483        9.0079626771        3.8249176101
 O        -9.0712254664        8.8914192746        2.6309215906
 C        -7.9845462797        8.0005300976        4.5503268764
 C        -8.4481009679        6.6222122584        3.9476908226
 O        -9.0113105215        6.4498619434        2.8872080664
 C        -7.9769346204        5.3747694898        4.7899586567
 C        -8.3278329391        4.0608064914        4.1152701302
 C        -9.8640079737        3.9804569146        3.8871150136
 O       -10.7257822039        4.5270278373        4.6407787337
 C       -10.2030494452        3.0838488557        2.6566846072
 C       -10.5705156393        4.0336228928        1.3686711490
 O       -11.2347278081        5.0287211985        1.4250472265
 C        -9.7505665855        3.7001019150        0.1263597271
 C       -10.0653916470        4.6178410248       -1.0867974271
 C        -9.4243372538        4.1166039537       -2.4102978784
 O        -8.4229662819        3.4773056431       -2.3580121084
 C       -10.1133728121        4.4001119909       -3.8571913058
 C       -11.2434226988        3.3379166692       -3.8772055346
 O       -12.0871229942        3.5135863368       -3.0474889234
 C       -11.1168152056        2.0715644217       -4.7525537475
 C       -11.2722149134        0.8213424712       -3.9660002615
 C       -11.2440940126       -0.5037814661       -4.8304004214
 O       -11.5967699771       -0.5307919064       -5.9678576137
 C       -10.7366982649       -1.8534516420       -4.1292359716
 C        -9.5142853061       -1.6929673270       -3.1171834635
 O        -8.6594064990       -0.9305130034       -3.5014727886
 C        -9.2303945720       -2.7696542742       -2.0808917955
 C        -7.8373382714       -3.4936859196       -1.9393850902
 C        -6.5144520860       -2.5818291314       -1.4243682062
 O        -6.5757177501       -1.8911672708       -0.4340294563
 C        -5.1616868964       -2.8349201727       -2.2208726955
 C        -5.4808697085       -2.8376302163       -3.6386451652
 O        -5.9828911930       -3.8137660520       -4.2123908620
 C        -5.5916484059       -1.4615281247       -4.4242580726
 C        -4.0992697275       -1.8176286159       -1.9973089702
 C        -4.8462526889       -4.2298526402       -1.5437673956
 C       -12.0119127108       -2.5026542929       -3.4664575941
 C       -10.1857580916       -2.9238417832       -5.2826095176
 C       -10.7314258229        5.8724909668       -3.8374342533
 C        -8.8658203450        4.0519238510       -4.8287904800
 C        -9.2931460300        1.9165839975        2.4247344534
 C       -11.5607754711        2.3977203131        2.9392631627
 C        -6.4744373555        8.1835608018        3.9321867233
 C        -7.8624809087        8.2437786298        6.0822297907
 C       -13.4737984927        7.6934304143        1.3675636130
 C       -14.2485390655        9.8906592600        2.6547102833
 H       -16.2845902216        7.1985695961        4.8965336099
 H       -16.4359113084        7.6807129890        3.2921844164
 H       -16.0637022004        8.8461317261        4.5108769064
 H       -12.1124300462       10.5792193579        4.1349809083
 H       -11.1450719306       10.3541835478        2.7590572692
 H       -10.2886153408        9.8723032630        5.5493283182
 H        -9.7552918343       10.8900822161        4.4102074902
 H        -8.5233234826        5.3769381862        5.7353823261
 H        -6.8567877934        5.4717903761        4.8841545454
 H        -8.0872238816        3.1782137187        4.8273778519
 H        -7.7425523780        3.9371163853        3.1525072106
 H        -9.8469337351        2.6251664639       -0.1677665622
 H        -8.7500318978        3.8463226131        0.3685377031
 H        -9.6620673054        5.5899313553       -0.8825715852
 H       -11.1282179531        4.7614590456       -1.3745110849
 H       -10.1339247418        2.0703822586       -5.2765837801
 H       -12.0211630365        2.0254097174       -5.5054814179
 H       -12.3191398367        0.8793975605       -3.4562592424
 H       -10.6321884699        0.9727069466       -3.1295497101
 H       -10.0414820902       -3.5758278189       -2.0553223042
 H        -9.2480944543       -2.3073068428       -1.0508099774
 H        -7.3361604330       -4.0179398080       -2.7560794216
 H        -7.7770190017       -4.2732033149       -1.0949329445
 H        -5.7385522375       -0.5721252688       -3.7467415387
 H        -6.3848873061       -1.5915297381       -5.1299041226
 H        -4.6780182332       -1.2154332063       -5.0964125450
 H        -4.4693595778       -0.8147992619       -2.1523341957
 H        -3.2095348866       -2.0528820849       -2.5732184849
 H        -3.7799014113       -1.8080799639       -0.9348840805
 H        -4.6781027893       -4.1461146070       -0.4852280989
 H        -3.9594666061       -4.7063279654       -2.1581828059
 H        -5.5542248809       -4.9134805340       -1.9309497243
 H       -12.3760674693       -1.9051575222       -2.5855069856
 H       -11.9108931365       -3.4437894680       -2.9980340562
 H       -12.8179881673       -2.6394368537       -4.1608465765
 H        -9.5814426541       -2.3230940380       -6.0231320345
 H       -10.9471408287       -3.3290796524       -5.8715936342
 H        -9.5604448126       -3.7079876518       -4.8810374472
 H       -10.2870652483        6.4689412169       -4.6028038434
 H       -10.7021811695        6.3713382609       -2.9347792266
 H       -11.7755115717        5.6006336621       -4.0392501191
 H        -8.5603725775        3.0257332913       -4.7896171390
 H        -8.0400422282        4.6540927391       -4.5745573262
 H        -9.1003170219        4.1767914520       -5.8696749328
 H        -9.7419764128        1.2062618085        1.8655898555
 H        -9.0460222303        1.4439198909        3.3426849860
 H        -8.3887301770        2.0488449036        1.8665893096
 H       -11.5425523020        1.7337412818        3.7645808132
 H       -12.1204438836        1.9468902451        2.0693726915
 H       -12.2285344488        3.1817320599        3.0768388080
 H        -6.1600447940        9.1979395750        3.6528696028
 H        -6.2793307103        7.6566849339        3.0301462936
 H        -5.9581799774        7.8965197438        4.8098196657
 H        -8.7101439408        7.8099779933        6.6590400441
 H        -7.8759235331        9.2391840403        6.2747999452
 H        -7.0220544703        7.7723327119        6.4257832203
 H       -13.1617005156        8.3735206308        0.5017819199
 H       -14.5404405145        7.3926249828        1.2964631211
 H       -12.9259400948        6.7319092631        1.5070168484
 H       -15.0141649221       10.0958986909        1.8482330309
 H       -13.3142362537       10.5793100660        2.4909286579
 H       -14.5825658121       10.1963931691        3.6407240611
 Na      -12.0349565061        5.7384932430        3.3401987367
