117

 C       -15.7361832109        7.9282767284        4.0190337025
 C       -14.4104912703        7.4528954013        3.5302869141
 O       -13.9661639776        6.3309254210        3.7380217886
 C       -13.4537694982        8.4889237503        2.8860473017
 C       -12.1123826365        8.5599543302        3.5151123742
 O       -11.3959701659        7.7078337432        3.9579829302
 C       -11.4667651345       10.1549408855        3.6807578406
 C       -10.0300942874        9.8804345474        4.4024897324
 C        -8.9685275863        9.0403444101        3.6377335079
 O        -9.0290531487        8.7875660054        2.4420194781
 C        -7.9035702672        8.0520469723        4.4859171650
 C        -8.4912478001        6.5761900940        4.0837410231
 O        -9.0954698351        6.4036794640        3.0115863500
 C        -8.0619563036        5.4688942777        4.9735398464
 C        -8.3708053937        4.1640026133        4.1830006279
 C        -9.9599234213        3.8644366978        3.8835586339
 O       -10.7318724094        4.4897156187        4.6011772490
 C       -10.3393698781        3.0893524307        2.6732004021
 C       -10.4508313129        4.0617418762        1.4266764065
 O       -11.1265105771        5.0231183768        1.3533232260
 C        -9.7201591513        3.6331725317        0.0707404876
 C       -10.2431951895        4.4664490531       -1.0943042972
 C        -9.4046237073        4.0622145137       -2.3373875230
 O        -8.3934508099        3.4058941873       -2.2370529510
 C        -9.9937370448        4.4046211552       -3.7516024098
 C       -11.1615445922        3.3504944851       -3.8112670193
 O       -12.1508798166        3.5250026922       -3.1036523104
 C       -11.1443044770        2.0954366153       -4.7662070721
 C       -11.3658438035        0.6836201695       -3.9727178251
 C       -11.1755822980       -0.5454919151       -4.7842830628
 O       -11.4710557521       -0.5725650740       -5.9839947982
 C       -10.8844745967       -1.8788268281       -4.0095268041
 C        -9.3913284999       -1.8141757423       -3.2201925184
 O        -8.6103686396       -0.9154155387       -3.4944342098
 C        -9.2367892626       -2.7323677049       -2.0279152007
 C        -7.8671333402       -3.3059031885       -1.8920813583
 C        -6.5858049443       -2.5037993677       -1.4536947668
 O        -6.5597482874       -1.8221954852       -0.4518577548
 C        -5.2581062929       -2.8058545639       -2.1828330055
 C        -5.5977712737       -2.9917124851       -3.6699109187
 O        -5.8877325180       -4.0256855832       -4.2541957722
 C        -5.6331030265       -1.5508067934       -4.3590850481
 C        -4.2529465756       -1.6838167978       -1.8256409503
 C        -4.7781723720       -4.1379543926       -1.3579270038
 C       -12.2031289895       -2.4413474863       -3.5019879356
 C       -10.4458820691       -2.8752861095       -5.0991608639
 C       -10.6471617811        5.8156635726       -3.8097758492
 C        -8.9562948841        4.0981502640       -4.8359566188
 C        -9.2204200372        1.9941602668        2.4726642365
 C       -11.7312529893        2.3660476678        2.8932518676
 C        -6.5642271446        8.0844350283        3.7696560590
 C        -7.9728468013        8.2196259215        5.9662218846
 C       -13.4161576523        7.7791285605        1.4443078761
 C       -14.1451732912        9.8559728853        2.5212648390
 H       -16.4744112906        7.1927901353        4.5025253426
 H       -16.4128377045        8.5332720829        3.4214329656
 H       -15.4862131804        8.5700408833        4.9078342886
 H       -12.2426212273       10.8117841786        4.1283797203
 H       -11.2849573802       10.5279227527        2.6155927336
 H       -10.2522040295        9.4998731955        5.3128974761
 H        -9.6882998313       10.8593966976        4.6854371457
 H        -8.5308779665        5.5589100162        5.8826772906
 H        -6.9908320603        5.5923941021        5.0452733244
 H        -7.9037743579        3.2962026886        4.7839656345
 H        -7.7791119501        4.2938209262        3.2717595794
 H       -10.1896239822        2.5492528177       -0.1208420379
 H        -8.6130227719        3.5492392387        0.0010875270
 H       -10.1771091840        5.5095652555       -0.9188197012
 H       -11.3302854865        4.2827495339       -1.2838189442
 H       -10.2347701019        2.0716900195       -5.2782668015
 H       -11.9814109195        2.1365397338       -5.4154818775
 H       -12.3623906377        0.7606238272       -3.3946293780
 H       -10.6267207853        0.7462814113       -3.1651717916
 H        -9.9230721220       -3.5943225279       -2.0251443123
 H        -9.5046245660       -2.1497177313       -1.1163424627
 H        -7.4732620885       -3.7160513818       -2.8608103966
 H        -7.7402072371       -4.1522366451       -1.2433624381
 H        -6.2150626907       -0.7764722200       -3.7890142890
 H        -5.9419280191       -1.6018627901       -5.4325836900
 H        -4.6506540303       -1.2251324215       -4.4076216342
 H        -4.6183753311       -0.6773464000       -1.9919707346
 H        -3.4334591445       -1.9681694404       -2.5767667510
 H        -3.7989456803       -1.6692391128       -0.8570419004
 H        -4.7554667670       -3.9310556898       -0.2868405535
 H        -3.8498117785       -4.4283327894       -1.6611295432
 H        -5.3844136790       -4.9038486629       -1.7432153921
 H       -12.5063563865       -1.9509177119       -2.6748207238
 H       -12.2707127452       -3.4315762135       -3.1738447448
 H       -12.9911952872       -2.3805067164       -4.3131323023
 H        -9.4086997315       -2.6871097172       -5.3570373855
 H       -10.9549050523       -2.7470265268       -6.0771707211
 H       -10.5963622997       -3.9741674941       -4.8160860530
 H       -10.1859453711        6.4591676588       -4.5665605948
 H       -10.6122862646        6.3077714031       -2.8902320220
 H       -11.6740845515        5.5434458060       -4.0451654393
 H        -8.4943288976        3.0907115493       -4.8272682013
 H        -8.1138518862        4.8184816065       -4.7187617566
 H        -9.4421090757        4.1827786134       -5.7731922188
 H        -9.4175227159        1.2669853735        1.7092461308
 H        -9.0724347359        1.5191127634        3.3848523567
 H        -8.2020875615        2.3449919282        2.1893800756
 H       -11.6853702051        1.8302025638        3.8725230730
 H       -12.0322913142        1.6673831886        2.0816879975
 H       -12.6279429869        3.0533726424        2.8261993411
 H        -6.3178325707        8.9029692983        3.1692077469
 H        -6.6211804357        7.2945357602        3.0759178059
 H        -5.7891759339        7.9934863064        4.5188839262
 H        -8.9000936930        7.8784605319        6.4274541976
 H        -7.9602024974        9.3253236141        6.1678017155
 H        -7.1671480077        7.6979790605        6.4126775233
 H       -12.8256782501        8.3819116953        0.7039972674
 H       -14.4799842737        7.6096330737        1.2126660006
 H       -12.9646053144        6.7880660144        1.6575178770
 H       -14.9500197007        9.6787635810        1.7711506853
 H       -13.3630305806       10.4822545192        2.1136261171
 H       -14.5230833969       10.4219979849        3.4130246822
 Na      -11.8560424349        5.7327322213        3.2866034514
