117

 C       -15.6697482195        8.0014440678        4.0950324858
 C       -14.2324711265        7.5545277541        3.6250700828
 O       -13.9761431717        6.3818524681        3.8408430559
 C       -13.3833388091        8.5394477169        2.6597759237
 C       -12.0219049376        8.7612336871        3.4362922299
 O       -11.4287631236        7.8260198733        3.9223162437
 C       -11.2890838044       10.0946257798        3.6817886816
 C        -9.8946897805        9.8682761030        4.3082141475
 C        -9.0664404002        8.9121516117        3.4500228261
 O        -9.0181553266        9.0010269423        2.2199289455
 C        -8.0776184006        8.0902495447        4.3004142590
 C        -8.5546208000        6.5494965916        4.1570860485
 O        -9.2385055803        6.2992919004        3.1865534015
 C        -8.1778837621        5.3864988887        5.1063975216
 C        -8.4335971373        4.0983919512        4.3176231636
 C        -9.8935761384        4.0288622288        3.9167134957
 O       -10.7283984929        4.3564463344        4.6738821397
 C       -10.3020901963        3.0953704466        2.6619367022
 C       -10.4126581069        3.8664593718        1.3752154170
 O       -11.0143429736        4.9712688101        1.3994429041
 C        -9.7891005372        3.4532648275        0.0506215182
 C       -10.2897336923        4.2705106233       -1.0894169903
 C        -9.3637978017        3.9902110234       -2.3141892618
 O        -8.3176498264        3.3679620576       -2.0935983620
 C       -10.0031355404        4.2793107366       -3.7438868428
 C       -11.2148894102        3.2273794253       -3.7958317878
 O       -12.2605865370        3.4708826300       -3.1845809925
 C       -11.1709131915        2.0414949340       -4.7474397893
 C       -11.3858868364        0.6946084579       -3.8359476290
 C       -11.1408736234       -0.5187742179       -4.7864124136
 O       -11.3231289321       -0.5105164431       -5.9913731823
 C       -10.8470468262       -1.9173206548       -4.0694328263
 C        -9.6529159806       -1.6758424668       -3.1329313065
 O        -8.7131453378       -1.0163415207       -3.5177176867
 C        -9.3213642092       -2.6036014321       -1.8800607170
 C        -7.9239282175       -3.2918792472       -1.8735888228
 C        -6.7170463030       -2.4323036624       -1.3415419368
 O        -6.7986271441       -1.6355375899       -0.4326893528
 C        -5.3113204743       -2.8176578782       -2.1354810937
 C        -5.5365927188       -3.0257583156       -3.6824996760
 O        -5.7222411973       -4.0996113540       -4.1983121377
 C        -5.6666575633       -1.7837347016       -4.4433560642
 C        -4.3559470446       -1.6305167120       -1.6753902151
 C        -4.6948852593       -4.1080062180       -1.4158383788
 C       -12.1466931150       -2.2519704985       -3.3443864806
 C       -10.5526976543       -3.0602697343       -5.1641724634
 C       -10.5257202636        5.7430088415       -3.8263797668
 C        -8.9943875923        4.2431133962       -4.8561561375
 C        -9.2125538101        1.9585374958        2.4310830192
 C       -11.7303647777        2.4802322955        2.8126773694
 C        -6.6413141779        8.1017581885        3.6582170277
 C        -8.0642709386        8.3374926180        5.8249673297
 C       -13.1056592689        7.8862268089        1.2486380541
 C       -14.0982582520        9.8673006391        2.4582586553
 H       -16.4200670555        7.2303244835        3.7870091253
 H       -16.1867276173        8.9033220789        3.4894061590
 H       -15.9532308207        8.1946683266        5.0912246732
 H       -12.0457857214       10.6946423339        4.2730292450
 H       -11.2564124435       10.5874638599        2.6137629842
 H       -10.1693180033        9.5944833089        5.3547390945
 H        -9.5353531948       10.8992810460        4.4734190007
 H        -8.9731295375        5.5050044415        5.8580360073
 H        -7.2496398299        5.4249937161        5.5677651580
 H        -8.2134538268        3.2720057216        4.9237417366
 H        -7.7788286375        4.1230261314        3.4587754132
 H        -9.8648206306        2.3693800217       -0.0571407956
 H        -8.6587863448        3.8124106197        0.2252678828
 H       -10.2007683060        5.3478108726       -0.7587440403
 H       -11.3782511530        4.1655883850       -1.2622843502
 H       -10.2257736331        2.0842049830       -5.2302198860
 H       -11.9872061019        1.9849014043       -5.3263521467
 H       -12.2890294099        0.8692284741       -3.3341460649
 H       -10.5880363038        0.7309388034       -3.0195510637
 H        -9.8939594902       -3.5141525582       -1.9079976368
 H        -9.5391599748       -2.2289207537       -0.9035317725
 H        -7.6084206501       -3.8109275374       -2.7383781667
 H        -7.9065330329       -4.0456316254       -1.1583094539
 H        -6.6566199361       -1.4315008296       -4.2360515199
 H        -5.5483838655       -1.9411587177       -5.5177796477
 H        -4.9784955800       -1.0310423972       -4.1559484868
 H        -4.8717271752       -0.6963837287       -2.0100757244
 H        -3.4767386524       -1.7311816709       -2.3115103276
 H        -4.0489809567       -1.4596103880       -0.6363257426
 H        -4.7400228446       -3.8530419708       -0.3902887176
 H        -3.6469161558       -4.1228494273       -1.5718616728
 H        -5.1483736724       -5.0124954916       -1.7927973223
 H       -12.2744446766       -1.5974051731       -2.4869459723
 H       -12.3022089617       -3.2190436810       -2.8417368739
 H       -12.9746309915       -2.2508762317       -4.0065857360
 H        -9.5705640855       -3.4936090486       -5.2691049177
 H       -10.8035448692       -2.6718592348       -6.2337513156
 H       -11.3611718815       -3.8459861002       -4.9850455728
 H        -9.8335592945        6.2878281124       -4.4660393683
 H       -10.2838826081        6.2053740340       -2.7868370905
 H       -11.5152737335        5.8207759865       -4.1966110391
 H        -8.2417682544        3.4138743924       -4.8531817227
 H        -8.3486715902        5.1805927182       -4.7874050368
 H        -9.5796329051        4.1464623950       -5.8664973711
 H        -9.2565557436        1.2921391560        1.4677452504
 H        -9.0266655572        1.3299288590        3.3434340699
 H        -8.2195083116        2.3918494640        2.3466430624
 H       -11.7399313785        1.9729991461        3.8388110512
 H       -11.8956040463        1.7206687523        2.0788425407
 H       -12.6761982281        3.1202266174        2.6440740452
 H        -6.4052490354        9.0096145538        3.1341839443
 H        -6.6446697704        7.3075440852        2.9128905712
 H        -5.9088058434        8.0616748539        4.4446219771
 H        -8.9410099031        8.1851051976        6.4140208934
 H        -7.6960992611        9.4000676780        6.0548688012
 H        -7.2357543211        7.5503901952        6.1045647311
 H       -12.2165462056        8.4355956891        0.9592830467
 H       -13.9496785628        7.8133832760        0.5721477709
 H       -12.6321700501        6.9535643379        1.5065587117
 H       -15.1116553824        9.6518469790        2.1967692325
 H       -13.5832368563       10.4799519674        1.7958949828
 H       -14.0475670384       10.4300812465        3.4099215334
 Na      -11.7417101024        5.6961335711        3.2558465145
