117

 C       -15.4217200722        8.1821823881        4.0252411679
 C       -14.1303472845        7.7895780843        3.4748769714
 O       -13.6429441747        6.7028361562        3.7032050532
 C       -13.3005197137        8.7074255089        2.6043004947
 C       -11.9932622407        8.8881298948        3.4557214967
 O       -11.3681131824        8.0106387223        3.9868632320
 C       -11.3732755635       10.2998725320        3.3980869521
 C        -9.9484347227       10.1958560694        4.0759579324
 C        -9.0329720975        9.1714454777        3.3554190673
 O        -8.9555412959        9.0669955632        2.1230920950
 C        -8.1859581685        8.1549435436        4.0871778651
 C        -8.6880411040        6.4855946024        4.0193120092
 O        -9.4738025926        6.0853601740        3.1919508812
 C        -8.3914174296        5.4478773137        5.2121240388
 C        -8.3996355591        3.9200650419        4.7249254652
 C        -9.8205686928        3.6639245854        4.0835893078
 O       -10.8053031919        4.0561544707        4.7610417155
 C       -10.1396102328        2.9217750070        2.7453974481
 C       -10.1953586766        3.8855364127        1.4127338189
 O       -10.9354530751        4.7925937410        1.3612310692
 C        -9.7469801070        3.1426434653        0.0581452448
 C       -10.2335156256        4.0120048760       -1.1723212086
 C        -9.3523578353        3.8291366733       -2.3708065812
 O        -8.2248365476        3.4250548965       -2.4715646650
 C       -10.0188426896        4.1761278134       -3.7306686982
 C       -11.1605148518        3.2206528612       -3.8831989685
 O       -12.2453467598        3.4554604908       -3.4168086251
 C       -11.0087610363        1.9542599003       -4.7016493200
 C       -11.2680517537        0.7353960972       -3.9076152175
 C       -11.1487375581       -0.5405319026       -4.7422510714
 O       -10.9546753097       -0.4954945204       -5.9530446705
 C       -11.0325302042       -1.9264541898       -3.9800239695
 C        -9.6052987248       -1.6714413419       -3.0298120284
 O        -8.7191496700       -1.0361335140       -3.5582794648
 C        -9.4070474389       -2.5029613441       -1.8271457677
 C        -8.1597513557       -3.3642818808       -1.7742818079
 C        -7.0079855142       -2.4480519895       -1.4710119046
 O        -7.2412343253       -1.4812566925       -0.7619097292
 C        -5.5827894281       -2.6902703504       -1.9640023176
 C        -5.5696281248       -3.0195010324       -3.4732177603
 O        -5.2238755916       -4.1491218116       -3.8126945145
 C        -5.7763584725       -1.9975660524       -4.5753416669
 C        -4.6694779279       -1.4721743618       -1.6503253184
 C        -4.8825659337       -3.9750687500       -1.2940959007
 C       -12.1112903893       -2.0754077313       -2.9646175930
 C       -10.9398564656       -3.0972283941       -4.9535464903
 C       -10.6125410448        5.6043796113       -3.5933210215
 C        -9.0100977345        3.9688473938       -4.7997537871
 C        -9.1991478574        1.7041041633        2.6077377920
 C       -11.6379518515        2.3822945226        2.9339045232
 C        -6.8097149249        8.0506871404        3.4020778320
 C        -7.9176289916        8.4655590042        5.5719645479
 C       -12.6561144601        8.1295904713        1.2802950848
 C       -13.9594454020       10.0660691241        2.2015412469
 H       -16.1484254318        8.4091835773        3.2991119090
 H       -15.4154147612        9.0575060123        4.5797732527
 H       -15.8727651183        7.4825126906        4.7565201721
 H       -12.0680376389       11.0578873167        3.4903062697
 H       -11.1455267139       10.3198182860        2.3847550698
 H       -10.0111322432       10.2022071112        5.1049435023
 H        -9.4963347710       11.1826676197        3.8421545341
 H        -9.1431061933        5.5861711546        6.0472934317
 H        -7.3306984776        5.6949674803        5.6816305041
 H        -8.4072851141        3.3556990125        5.7134334189
 H        -7.5470920257        3.7271685067        4.0831301259
 H       -10.2584138597        2.1639216167        0.2512694375
 H        -8.7662819013        3.0535596698        0.1065750784
 H       -10.3036814704        5.0303525962       -0.8161497022
 H       -11.3249124634        3.7965432765       -1.2429231967
 H        -9.9511699095        1.8069745368       -5.0653081103
 H       -11.8592799630        2.0228627892       -5.5260195992
 H       -12.2585044989        0.8567982513       -3.3687355422
 H       -10.4981585571        0.8340475786       -3.2234543379
 H       -10.1577957078       -3.2123816175       -1.4408685325
 H        -9.3827541241       -1.7619513535       -1.0002544239
 H        -7.8914026126       -4.0516155933       -2.6149766755
 H        -8.1816895197       -4.0746120338       -0.8999713782
 H        -6.6617721284       -2.2963764591       -5.2131785858
 H        -4.9081324208       -2.1041403501       -5.2467463236
 H        -5.7571893223       -0.9597577053       -4.2936589147
 H        -4.9484483201       -0.4923737930       -2.0208542235
 H        -3.5455135553       -1.6114073384       -1.7793010399
 H        -4.9408426326       -1.4316285555       -0.6134870152
 H        -4.6268000787       -3.8372165358       -0.1809503959
 H        -3.8799660793       -4.1163249200       -1.7208639650
 H        -5.6420615577       -4.7483975900       -1.5994122021
 H       -12.0578076511       -1.4560653256       -2.0830542859
 H       -12.1379894091       -3.0714580493       -2.5294252787
 H       -13.1932878632       -2.1614378265       -3.3606915189
 H       -10.6506307615       -4.0111296542       -4.4065196818
 H       -10.2254696416       -3.0258999324       -5.7088718356
 H       -11.8699707405       -3.2036400943       -5.4902622722
 H        -9.9893807042        6.2757225819       -4.2162011154
 H       -10.5112099999        5.9128061337       -2.6395688629
 H       -11.6480175732        5.5784373145       -4.0445131461
 H        -8.5322853113        2.9566131831       -4.6560378023
 H        -8.1769098501        4.6151460649       -4.5185890655
 H        -9.2915475367        4.0382134843       -5.7937396127
 H        -9.7303255532        1.0500160871        1.9852323998
 H        -9.0361528579        1.1978389278        3.5133334502
 H        -8.1193102336        1.7328295083        2.2508784094
 H       -11.7511478681        1.7504189747        3.7456942558
 H       -12.0208744834        1.8661856250        2.0344557059
 H       -12.2956138716        3.1836793291        3.1247412586
 H        -6.1079296863        8.8575958112        3.7600040457
 H        -6.9951511162        8.0953768984        2.2989067332
 H        -6.2496246229        7.1892533571        3.8727542189
 H        -8.8736963397        8.3056368825        6.1368744320
 H        -7.6151683308        9.4980877945        5.6687127304
 H        -7.1337509194        7.9084703312        5.9294020471
 H       -11.6869097471        8.6059240611        1.1457492074
 H       -13.4666818238        8.3489143966        0.5887346463
 H       -12.3323507140        7.0701322481        1.2830953843
 H       -14.8582324457        9.7898839248        1.6576279973
 H       -13.1678548861       10.6199034748        1.6890078147
 H       -14.1552679721       10.7097079185        3.0243190508
 Na      -11.8907949525        5.6810784881        3.3792418133
