117

 C       -15.3153977658        8.9507987098        3.7341089016
 C       -14.0925068024        8.2228710366        3.0051540407
 O       -13.9212045103        7.0117423950        3.2421171173
 C       -12.9480103370        9.1358014739        2.2356134365
 C       -11.7747487491        9.1674260725        3.3664625911
 O       -11.6027791898        8.2651237001        4.1472613702
 C       -10.8354672091       10.4461378614        3.2550146119
 C        -9.4265700577       10.2711451846        3.8521537727
 C        -8.7292310005        9.1792932825        2.9452441694
 O        -9.0009205681        8.8553113327        1.8361794947
 C        -7.7750413912        8.0266180833        3.9071871883
 C        -8.8316523060        6.8201927590        3.8338841741
 O        -9.6762192287        6.7304811507        2.9395306678
 C        -8.7605679748        5.6926400668        4.8734672440
 C        -8.5444478467        4.3754972409        4.1244743705
 C        -9.9020614953        3.5272738362        3.9481233194
 O       -10.9931783527        3.9738445130        4.3533355028
 C       -10.0178096094        2.3899131077        2.9358877998
 C       -10.3643300956        3.2675043848        1.6193277729
 O       -11.2472364305        4.0700871348        1.6038790208
 C        -9.5042381057        2.9779918827        0.3039733008
 C       -10.1981755226        3.6629064143       -0.9883359570
 C        -9.2584686575        3.5825671326       -2.1738232511
 O        -8.1703958057        3.0506313059       -2.1042666593
 C        -9.8976245508        4.1239660928       -3.5118643081
 C       -11.1811714445        3.2431376432       -3.9208971997
 O       -12.3287913396        3.4675210227       -3.5790240211
 C       -10.8571476482        1.9661038406       -4.7566275629
 C       -11.4852909587        0.6744855524       -4.1625764380
 C       -11.0967877194       -0.7292039668       -4.6989110815
 O       -10.6865477156       -1.0044307042       -5.7766295589
 C       -11.3825647709       -1.9336032001       -3.6849546863
 C        -9.8920615933       -2.2335748680       -3.1016315694
 O        -8.9545851415       -1.6026956722       -3.5798322698
 C        -9.6558564704       -3.2138311467       -1.9709227167
 C        -8.1640830228       -3.5199415279       -1.5094639927
 C        -7.2575385198       -2.1652045586       -1.4019105359
 O        -7.7870395825       -1.1017386953       -1.0860086432
 C        -5.6910930682       -2.4045070911       -1.5958339343
 C        -5.4485788970       -3.1070479230       -3.0620355878
 O        -4.9213480485       -4.1858433124       -3.0606282124
 C        -6.0267239277       -2.6325118091       -4.3342974446
 C        -4.9470577717       -1.0014330596       -1.4468247548
 C        -5.1931985237       -3.4303206041       -0.5431789214
 C       -12.4588112127       -1.6707883350       -2.6994892188
 C       -11.9941307007       -3.1499921445       -4.5198697861
 C       -10.3383030827        5.6055841469       -3.2969807717
 C        -8.7531386172        4.2169637743       -4.5703874497
 C        -8.6676302310        1.5335728025        2.7718020116
 C       -11.2571172574        1.4379821744        3.1267526071
 C        -6.4917481454        7.8489654383        3.0092263304
 C        -7.5335247492        8.3847420753        5.3699474260
 C       -12.2121539030        8.2671575198        0.9476801089
 C       -13.5488521395       10.5277660835        1.9239367161
 H       -15.3554545369       10.0101081344        3.5423102116
 H       -15.3248208158        8.9065566336        4.8518528028
 H       -16.3688780144        8.6762933085        3.5059544306
 H       -11.3884278441       11.1905767819        3.7310655803
 H       -10.8124381356       10.8641593145        2.2951655407
 H        -9.5636537226        9.8782915922        4.8538429903
 H        -8.9342521231       11.1652527151        3.9368718944
 H        -9.8537920587        5.6845868280        5.2990218360
 H        -8.2461475781        5.9309816097        5.8022060442
 H        -7.7810997318        3.6981359081        4.6048402169
 H        -8.1694424305        4.6319392933        3.0871757045
 H        -9.4288695163        1.9153585256        0.2049904812
 H        -8.5372083365        3.6177973842        0.2083977336
 H       -10.2667047091        4.7366849210       -0.8602301967
 H       -11.2158997339        3.3369559800       -1.1702206696
 H        -9.7236714805        1.8222196132       -4.5800064528
 H       -11.0595984128        2.0203762676       -5.8347983994
 H       -12.5549739906        0.8817314941       -4.1049861937
 H       -10.8943433934        0.6430559724       -3.2128982487
 H       -10.1872999556       -4.1113074281       -2.2232378699
 H       -10.0483997302       -2.9545231263       -0.9447467771
 H        -7.5251813966       -4.2392813808       -2.1600813702
 H        -8.1488381584       -3.7169839543       -0.3954382192
 H        -5.3526875635       -2.9493867495       -5.0995577909
 H        -6.2485488967       -1.5449110291       -4.3873763363
 H        -7.0532087751       -3.0770968884       -4.4217569941
 H        -5.5188001028       -0.3819109731       -2.1735045499
 H        -4.0090439819       -1.0704341753       -1.9804441506
 H        -4.8697657052       -0.5821829905       -0.4445827526
 H        -5.3946353789       -3.3243520077        0.5563890750
 H        -4.0790013188       -3.2703648174       -0.8116613535
 H        -5.5976854633       -4.4476247889       -0.8080461077
 H       -12.3398597131       -0.6867043673       -2.2124152415
 H       -12.7334473534       -2.4930724448       -1.9620238871
 H       -13.3484838639       -1.3591996304       -3.1559092198
 H       -11.9365950542       -4.0309651415       -3.9716065290
 H       -11.6158756159       -3.3772931115       -5.5221955144
 H       -13.0385709563       -2.9390406174       -4.7737698417
 H        -9.9143559660        6.0593948582       -2.4021760805
 H       -11.4955858093        5.4586588577       -3.3173545356
 H       -10.1087901186        6.2186801525       -4.1073925013
 H        -8.1658766513        3.3730880349       -4.5749433592
 H        -8.1967825903        5.0001160873       -4.1486879613
 H        -9.0238137200        4.6419451416       -5.5743539988
 H        -8.6950190451        0.6044576219        2.1515222326
 H        -8.3178293061        1.1729573540        3.7336563886
 H        -7.9659484821        2.2045332430        2.4391948302
 H       -11.4095515550        1.1647700315        4.1523034432
 H       -10.9912648265        0.5691078568        2.7027676096
 H       -12.2407816648        1.7966367957        2.8941232566
 H        -6.3390309517        8.8356198212        2.5499382957
 H        -6.8408027698        7.1095950652        2.2270289541
 H        -5.5421446456        7.3825322689        3.4594300169
 H        -8.4140347381        8.6011066569        5.8780737825
 H        -6.8902996299        9.2572088761        5.3544066772
 H        -6.9037159540        7.6130351094        5.8615738506
 H       -11.6206324290        8.9094077799        0.2546682149
 H       -13.0763099634        7.7830418049        0.4323483211
 H       -11.5753451630        7.5159319034        1.4435885001
 H       -14.4444793054       10.5875950800        1.2894921958
 H       -12.7706368629       10.9218192281        1.3465121864
 H       -13.6126895583       11.0079596137        2.9511714358
 Na      -11.9212680672        6.1697603758        3.3677288582
