117

 C       -15.2536341567        9.1615424260        3.4101596703
 C       -14.1069012288        8.3309132807        2.9668717281
 O       -13.9083767328        7.1424947966        2.9202887150
 C       -12.8469230285        9.2139829695        2.2880099522
 C       -11.7147373111        9.3401085441        3.3784725734
 O       -11.4449559984        8.4768878993        4.2202132103
 C       -10.7821536712       10.5693574071        3.2077101153
 C        -9.3909264686       10.3052498342        3.8726854467
 C        -8.6516698789        9.2341099947        2.9823949365
 O        -8.4421512810        9.4258903611        1.7758993847
 C        -7.9152526757        8.0018748820        3.6920716431
 C        -8.8271388239        6.7295887509        3.7164790526
 O        -9.6732708377        6.7179489552        2.8298014739
 C        -8.6094167612        5.6820389020        4.7832969145
 C        -8.5168045207        4.2429501377        4.2300401703
 C        -9.9621284574        3.6638393370        3.7805667123
 O       -10.9972870138        4.0393070083        4.2147974445
 C        -9.9527567810        2.4086735830        2.8598948397
 C       -10.4467301191        3.1517760982        1.4518140164
 O       -11.4650242235        3.8258099439        1.5780139137
 C        -9.7634686083        2.8531826946        0.1943002891
 C       -10.3372725082        3.5567675648       -0.9554849978
 C        -9.3370456758        3.4956163274       -2.0955520015
 O        -8.2914624465        2.8564242276       -1.9453956096
 C        -9.7693378700        4.1381641713       -3.3779016522
 C       -10.8766008801        3.1029081133       -3.8907922472
 O       -12.0271612630        3.3250752440       -3.6174173025
 C       -10.5416627872        1.7678190598       -4.6080513643
 C       -11.5585536062        0.7334816418       -3.9327717708
 C       -11.2379564053       -0.6447964050       -4.5140103825
 O       -10.9216553935       -0.8178340411       -5.6923637076
 C       -11.3989339466       -1.9408666987       -3.6458272742
 C        -9.9930110799       -2.2124061720       -3.1720947088
 O        -9.0826598352       -1.8587001230       -3.8673923959
 C        -9.8371699851       -3.1473219089       -2.0179902722
 C        -8.3854562869       -3.5212018585       -1.6734601646
 C        -7.4469659455       -2.1889359086       -1.3640545503
 O        -7.9394199058       -1.2305771846       -0.8646892568
 C        -5.9130596559       -2.3384029903       -1.4073283112
 C        -5.5374112578       -3.2271701914       -2.7267768424
 O        -4.8341372417       -4.2085111178       -2.8154684850
 C        -6.0718650935       -2.6568149692       -4.0863766714
 C        -5.3420002996       -0.9299293071       -1.5409239905
 C        -5.2883773317       -3.0470764235       -0.2292946510
 C       -12.1999585576       -1.7439897237       -2.3605835768
 C       -11.9969835353       -3.1641503143       -4.4043542697
 C       -10.5088317551        5.5086952499       -3.1576840143
 C        -8.6008552400        4.1403724974       -4.4137443848
 C        -8.5860523773        1.7970493667        2.6702843131
 C       -11.0347092248        1.2845474168        3.3669003897
 C        -6.6720416776        7.5427155470        2.7516536656
 C        -7.3490846073        8.4751796838        5.1087082770
 C       -12.3418716231        8.4983690339        0.9614844737
 C       -13.2702927598       10.7137121081        1.6855797860
 H       -15.1454796232       10.2882213755        3.2241324037
 H       -15.5019061984        9.1017243016        4.5112300862
 H       -16.1409380640        8.8332052467        2.8847076628
 H       -11.1700897256       11.6559270056        3.3761745932
 H       -10.6880529662       10.5750752668        2.0479645796
 H        -9.6427291059        9.8128416588        4.8294393833
 H        -8.7714409846       11.3174880020        4.0498346515
 H        -9.2668931011        5.7919439203        5.5496292443
 H        -7.6733402188        5.9587112798        5.3142923678
 H        -8.2258672141        3.6295721379        5.1110957563
 H        -7.7228844462        4.0803652683        3.4964271028
 H        -9.7167403064        1.7100975711       -0.0556278349
 H        -8.8316468831        3.3065794444        0.2348252354
 H       -10.5918308408        4.5812870316       -0.7085166671
 H       -11.2253188157        3.0407352864       -1.3658853827
 H        -9.5490577340        1.3805928791       -4.5696858668
 H       -10.6803362095        1.8554388215       -5.6861148558
 H       -12.5930273680        1.0149939199       -4.2516787351
 H       -11.2742876003        0.7309319227       -2.8925315572
 H       -10.4447890814       -4.1036226063       -2.0895891966
 H       -10.1458139195       -2.6802627795       -1.1028892484
 H        -7.9903827943       -4.1208883283       -2.4168059699
 H        -8.3256385517       -3.8654449605       -0.6561507512
 H        -5.1826775874       -2.3541414958       -4.7442409561
 H        -6.7142142081       -1.8004428573       -3.8860529769
 H        -6.6996583283       -3.3605764529       -4.5528991932
 H        -5.6504144552       -0.3360760626       -2.3789876011
 H        -4.2232544632       -1.1058528804       -1.5574624265
 H        -5.5711913556       -0.4654320975       -0.5780877642
 H        -5.7929100408       -2.6931881694        0.6672904819
 H        -4.2871350810       -3.0022256461       -0.1702898494
 H        -5.7112746723       -4.0300618419       -0.3156145013
 H       -11.6532455637       -1.3035854646       -1.6087544450
 H       -12.6195501272       -2.6364359371       -2.1005047832
 H       -12.9810826020       -0.8959442351       -2.4010919829
 H       -11.9336974814       -4.2072862027       -3.9836142094
 H       -11.5646202330       -3.2729419400       -5.3765189535
 H       -13.0806961648       -3.0425906771       -4.5676179158
 H       -10.6251128980        5.5825568241       -2.0927667044
 H       -11.3465495332        5.6899301009       -3.6903298914
 H        -9.7584645585        6.3265574232       -3.3456648329
 H        -8.3733938146        3.0285803470       -4.3777828440
 H        -7.6531185947        4.7340018112       -4.1741844521
 H        -9.0329418196        4.5722044563       -5.2894289883
 H        -8.6194958241        1.1019342339        1.8173859708
 H        -8.3212798578        1.3108558233        3.5964841667
 H        -7.8157890962        2.5332627073        2.2243272629
 H       -10.7305055507        0.8093590769        4.3054700868
 H       -11.3190226531        0.4335877540        2.6764373330
 H       -11.9351219673        1.8359064907        3.6889126483
 H        -6.3829898273        8.4250650037        2.2167721156
 H        -6.6509802110        6.6833863385        2.1452640500
 H        -5.9711862262        7.3312454083        3.5132151752
 H        -7.9422808228        8.2645177198        6.0287306081
 H        -7.2340921525        9.5780960369        5.0105691269
 H        -6.3929558231        8.0308204753        5.2396495673
 H       -11.3495621273        8.9130573049        0.7866844722
 H       -12.9665559280        8.8105334700        0.0853630535
 H       -12.3566958521        7.4196601394        1.1705023926
 H       -14.1792339835       10.4492369608        1.1273073222
 H       -12.6594511834       11.1422514852        0.8656808993
 H       -13.6169897568       11.3034143506        2.4881186199
 Na      -11.9001370997        5.7324518194        3.1242166449
