117

 C       -15.2627217219        9.0259507085        2.6380987732
 C       -13.8065500427        8.4529981095        2.3447843825
 O       -13.7001244875        7.2348679545        2.5391258344
 C       -12.6626322320        9.3856724886        1.9063958106
 C       -11.4811502887        9.2242044599        2.9905424601
 O       -11.4475924267        8.2153598084        3.6307538309
 C       -10.4484297467       10.3340640521        3.1552044323
 C        -9.2430941325       10.0003603497        3.9281443003
 C        -8.1257046677        9.3375551915        3.0047509462
 O        -8.0324741267        9.8504211414        1.9439752264
 C        -7.5891486376        7.9555747010        3.3865825028
 C        -8.6573722727        6.9927106417        3.6158858669
 O        -9.4846086692        6.8581291563        2.6928233649
 C        -8.7836451649        5.9308378461        4.8058929186
 C        -8.5571595941        4.4935289709        4.2604443468
 C        -9.8286642212        3.9049004435        3.7710707692
 O       -10.9668027733        4.2704674243        4.1973534006
 C        -9.9272047287        2.7258824387        2.8868158243
 C       -10.6523106637        3.2099246633        1.6250101792
 O       -11.5523685115        3.9890921382        1.7097249265
 C       -10.2309772615        2.5942924021        0.2103695939
 C       -10.4956677267        3.6462077622       -0.8505465870
 C        -9.3427000426        3.4455924202       -1.9632499020
 O        -8.2775326588        3.1149545569       -1.5383494064
 C        -9.6702209097        3.8768285039       -3.3860350654
 C       -10.8105269527        3.0638595933       -4.1203613546
 O       -11.8677919513        3.6695454809       -4.2585874416
 C       -10.6304503796        1.5559460133       -4.4811456638
 C       -11.2925505426        0.5564984501       -3.5385423770
 C       -11.6581632200       -0.7200910963       -4.3466659656
 O       -11.8615027796       -0.6837421215       -5.5091890393
 C       -11.7053840282       -2.1448186310       -3.5250302645
 C       -10.2154770853       -2.6074035012       -3.1708934948
 O        -9.3575333136       -2.2606542214       -3.9826769404
 C        -9.8686439724       -3.4932729928       -1.8676943564
 C        -8.3903177253       -3.6013275233       -1.5597650590
 C        -7.7784591147       -2.2931764800       -1.0596021423
 O        -8.5332306490       -1.3916300562       -0.5895709982
 C        -6.1964585400       -2.2034392306       -1.1322760547
 C        -5.6081388370       -3.1007055768       -2.1551031447
 O        -5.0627508793       -4.1005687289       -1.7871756904
 C        -5.3811152537       -2.7593227065       -3.6602864234
 C        -5.9236406616       -0.7360107321       -1.4078407401
 C        -5.5393378030       -2.5872831816        0.1774906885
 C       -12.5819138502       -2.2461151916       -2.2460117097
 C       -12.3382425153       -3.2094249204       -4.5472875379
 C       -10.1040465407        5.4119189877       -3.1465416627
 C        -8.3148753991        3.8541346081       -4.2904172615
 C        -8.6288544667        1.8720417610        2.7990607892
 C       -10.8554138214        1.6356331514        3.6343524607
 C        -6.8468080859        7.3033385709        2.1267448226
 C        -6.6399523517        8.0658038631        4.5076384500
 C       -12.1597328576        8.6547261036        0.6436458757
 C       -13.1224158373       10.7829961385        1.7484617008
 H       -15.5718500905        9.2887247019        3.6257024431
 H       -15.6350608100        8.0424503776        2.4840387554
 H       -15.7500289633        9.6693043817        1.8530889412
 H       -10.9989274244       11.1171493817        3.7977296158
 H       -10.0874004243       10.8705193949        2.1736807145
 H        -9.4958297114        9.3099769025        4.8534504967
 H        -8.7275672669       10.9047472412        4.2944360317
 H        -9.7786178325        6.0778285203        5.2125733920
 H        -8.1214669229        6.1507228096        5.6105637715
 H        -8.2910970762        3.7404387309        5.0373443469
 H        -7.7449729269        4.4391546678        3.6158453372
 H       -10.8719754019        1.7853698045       -0.0633028553
 H        -9.2143173133        2.2447608632        0.1200442087
 H       -10.2345198619        4.5391984496       -0.2536892795
 H       -11.4746324034        3.7397079516       -1.3300009497
 H        -9.5017116314        1.4186758112       -4.6419439376
 H       -10.9216530236        1.2504453222       -5.4609198332
 H       -12.0961563809        1.0450317479       -2.9691192556
 H       -10.6546155380        0.2367412185       -2.7321234078
 H       -10.1227601602       -4.5388625964       -2.1354098643
 H       -10.4023884893       -3.2021565782       -0.9498456324
 H        -7.8041428071       -3.7314490064       -2.4542687006
 H        -8.1869587429       -4.3598115777       -0.8697597077
 H        -4.9814552159       -1.7790847405       -3.7522762207
 H        -6.3867273026       -2.6894459380       -4.1278447175
 H        -4.7028709856       -3.5413809898       -4.1047228144
 H        -6.3984893840       -0.5682789417       -2.4036658386
 H        -4.8307432251       -0.5812978413       -1.4600683991
 H        -6.4431298042       -0.1181047811       -0.7126593728
 H        -5.8385285628       -1.8789254231        0.8481674473
 H        -4.4232498135       -2.5194745078       -0.0216806133
 H        -5.6097185658       -3.5647647936        0.4602944701
 H       -11.8182985307       -2.2475490671       -1.4048955712
 H       -13.1071985831       -3.1738829537       -2.1629903208
 H       -13.3261624404       -1.5802989595       -2.2556526975
 H       -12.4803187926       -4.1211723068       -4.0647860861
 H       -11.8570375679       -3.4861503579       -5.5078997542
 H       -13.4031245661       -2.9679888314       -4.6808477338
 H       -11.0065335382        5.7037152066       -3.6694058883
 H        -9.2972727070        6.0749343523       -3.6386610007
 H       -10.1036479743        5.6538613650       -2.1622339689
 H        -7.6126250537        3.0351426040       -4.0820434881
 H        -7.7876363983        4.7644932341       -3.9721907550
 H        -8.8676195876        3.9324353416       -5.3144501653
 H        -8.6627198945        1.0260150632        2.0313661637
 H        -8.4722029840        1.5723234206        3.9130452448
 H        -7.8576810905        2.5851081611        2.5876850597
 H       -10.5968208595        1.7517429496        4.7163036326
 H       -10.5181843971        0.6552796824        3.4000978825
 H       -11.9307746135        1.5500162108        3.3821462033
 H        -5.8165385812        7.5061069447        1.9666693371
 H        -7.3114137850        7.6316457331        1.2093849295
 H        -7.0132782962        6.2539000574        2.1107451061
 H        -7.0503985457        8.2148997899        5.4638770966
 H        -5.9889159032        8.8841011240        4.2323756347
 H        -6.0682424414        7.1023371693        4.6497908152
 H       -11.4954922320        9.3559001022        0.1019535661
 H       -12.9804978447        8.4163477200       -0.0808391786
 H       -11.5550835622        7.7835485068        0.9248485448
 H       -13.9169150182       10.9100771871        0.9991075117
 H       -12.2367759923       11.2983742716        1.5462757572
 H       -13.7021469064       11.1848132769        2.6290335463
 Na      -11.6843521173        5.9066471878        2.9835382965
