117

 C       -15.4367586072        8.8449230361        2.4861732816
 C       -13.9605525275        8.3232767286        2.2006382420
 O       -13.6355101387        7.1768904440        2.2852516495
 C       -12.6368686545        9.4041086634        1.8507653691
 C       -11.4760033578        9.2140144880        2.9793411187
 O       -11.4277987273        8.2050004949        3.6698321009
 C       -10.4567266651       10.3303829966        3.1749447861
 C        -9.1663947660        9.9062988565        4.0602584365
 C        -8.0940146965        9.3305288822        2.9833335031
 O        -8.0106216678        9.8885331716        1.8874179967
 C        -7.3828297920        7.9417622308        3.3073987910
 C        -8.6394180062        6.9609278583        3.4386370704
 O        -9.4570630009        6.8325901390        2.5550073845
 C        -8.7502862502        6.0685361747        4.7134821794
 C        -8.6460875777        4.6479289268        4.3175909783
 C        -9.9543652575        3.9425744772        3.9620874743
 O       -11.0419966999        4.5125229967        4.3079682403
 C        -9.9365303706        2.6774443199        2.9721742922
 C       -10.7349640494        3.1402268160        1.6095626538
 O       -11.4728609397        4.0925026266        1.6343384685
 C       -10.2576927654        2.6398503521        0.3272882596
 C       -10.4825870540        3.5681176365       -0.8382179605
 C        -9.2647210962        3.4431574683       -1.8648831545
 O        -8.1698171557        3.1194544465       -1.4779300306
 C        -9.6120095459        3.8716071669       -3.2949854352
 C       -10.8415282436        3.0205543173       -4.0043326291
 O       -11.7954310940        3.6153817027       -4.4510288678
 C       -10.8448441067        1.5137083172       -4.4089854907
 C       -11.1993702740        0.4148449874       -3.4258089909
 C       -11.6534747777       -0.9029889231       -4.1995354359
 O       -12.0198062482       -0.6592819691       -5.3345350831
 C       -11.7412732624       -2.2736170874       -3.4947387012
 C       -10.2457263638       -2.7389729626       -3.2378749738
 O        -9.3772001171       -2.2120209884       -3.8943921391
 C        -9.9630133884       -3.4431628070       -1.9509049377
 C        -8.4472091861       -3.6677652268       -1.6994560838
 C        -7.9049436860       -2.3258311503       -0.9291321432
 O        -8.7242206833       -1.4871427940       -0.6221461960
 C        -6.2803690687       -2.1009557069       -0.9614754062
 C        -5.5671416634       -3.0969745720       -1.9920799179
 O        -5.1329169320       -4.1918581322       -1.6234536797
 C        -5.3414929055       -2.6376854946       -3.5378861385
 C        -5.8941676425       -0.6733831800       -1.5796761949
 C        -5.6694877157       -2.4184371534        0.4088218166
 C       -12.6539307533       -2.1247304642       -2.2302867774
 C       -12.3236674729       -3.2282764105       -4.6431001793
 C       -10.0719019969        5.3163968082       -3.2758895501
 C        -8.2687653016        3.7366140270       -4.1787108022
 C        -8.5743772254        1.9068061302        2.5596404954
 C       -10.9667410587        1.6250037382        3.5202581090
 C        -6.7846063479        7.2776624602        1.9474488845
 C        -6.3412642199        7.9757234870        4.5321399727
 C       -12.1538519438        8.5753335610        0.5654262382
 C       -12.9099841962       10.9415031856        1.7385970103
 H       -15.6215713631        8.8547571717        3.5431269792
 H       -16.0809158208        8.1390084871        2.0876385388
 H       -15.6739319519        9.8295074481        2.0580329602
 H       -10.8864090551       11.2757747265        3.6401703015
 H       -10.0463037841       10.5953699289        2.1664556629
 H        -9.2963759054        9.0936215421        4.8363993569
 H        -8.6292134079       10.6838963087        4.5279668301
 H        -9.6916018113        6.3165939978        5.3560454734
 H        -7.9024440108        6.3435944061        5.3297811248
 H        -8.2265854198        4.0503177192        5.0103998124
 H        -7.9534910297        4.5644364598        3.5003463376
 H       -10.7929595075        1.7811506255        0.1877819403
 H        -9.2008067775        2.2588558915        0.3460563668
 H       -10.4754156244        4.5432777831       -0.2559591363
 H       -11.4320169044        3.4403808321       -1.4348806107
 H        -9.8869728657        1.3698409648       -4.9396693283
 H       -11.5078362727        1.3256881131       -5.3469811480
 H       -12.0023254005        0.7246365789       -2.8093656127
 H       -10.4730298750        0.3236879227       -2.6034620785
 H       -10.5742561756       -4.2772210762       -1.7892455677
 H       -10.2160769426       -2.6722892459       -1.2104890222
 H        -7.8652996091       -3.6974104587       -2.5635664308
 H        -8.1842466325       -4.4892784916       -1.0764408367
 H        -5.0743049788       -1.6423905918       -3.4232832965
 H        -6.2601133394       -2.5867109327       -4.0598449614
 H        -4.4966669279       -3.1395339173       -4.0680872620
 H        -6.4037354779       -0.5709537779       -2.5493799163
 H        -4.8616829100       -0.7121599053       -1.7038221216
 H        -6.2757297547        0.1718899804       -0.9436594408
 H        -6.0552886848       -2.0062371083        1.2925383641
 H        -4.6289393724       -2.1307836085        0.2691440714
 H        -5.4759155946       -3.4687268602        0.3585295989
 H       -11.9909200542       -1.7401758862       -1.4046856900
 H       -13.1435507676       -3.0606266735       -1.8652900021
 H       -13.5252572925       -1.5840262332       -2.6553245509
 H       -12.2410020620       -4.3676447340       -4.5258815935
 H       -11.8493838590       -3.0419880964       -5.6361931430
 H       -13.4000648558       -3.0727975232       -4.7518170152
 H       -10.8664863695        5.4748045910       -4.0254114643
 H        -9.3158840617        6.0091556252       -3.6083050537
 H       -10.3633590044        5.6017814472       -2.2322361432
 H        -7.7168238303        2.7582092968       -3.8445502832
 H        -7.6279701319        4.5022014744       -3.6534075970
 H        -8.5525458512        3.8538225357       -5.2488004049
 H        -8.8190144819        1.0846323017        1.8867937607
 H        -8.1295050683        1.5383168007        3.5405831382
 H        -7.8568120629        2.7442636303        2.1470508716
 H       -10.9293882138        1.6049506997        4.6320299811
 H       -10.8347332581        0.5208936544        3.1514624137
 H       -11.9457526395        1.8219970058        3.1088490909
 H        -5.8413924464        7.8217827255        1.7625671397
 H        -7.3482239468        7.3942602951        1.0115487974
 H        -6.4911241130        6.2905595829        1.9891952553
 H        -6.8240699107        8.3923462011        5.5190887835
 H        -5.4373630174        8.5348991674        4.3230954303
 H        -6.0769978610        6.9246733243        4.8432453232
 H       -11.3075669664        9.1469593556        0.1065706807
 H       -12.9481045059        8.5650408070       -0.1436289395
 H       -11.7637543885        7.5470841133        0.7844783927
 H       -13.7575915102       11.3263792569        1.2517255341
 H       -11.8922407700       11.2477133553        1.3605989090
 H       -13.0267355565       11.3738059907        2.6977193765
 Na      -11.5596241864        6.1027926489        3.0537034377
