117

 C       -15.3104201962        8.7725310394        2.2873452396
 C       -13.8680599062        8.3310854630        2.2475934457
 O       -13.6874444652        7.1475619206        2.1189560780
 C       -12.5416292767        9.2901587936        1.9085236907
 C       -11.5003396244        9.1777996581        2.9889902309
 O       -11.4224297938        8.2668392814        3.8469320585
 C       -10.4750295544       10.3261640902        3.1664247184
 C        -9.1443233067        9.7195407235        3.9176001537
 C        -8.1171974724        9.2630885137        2.9154698414
 O        -7.8698312295        9.8575096866        1.9068262601
 C        -7.2993791476        7.8631486236        3.1672092634
 C        -8.5342206312        6.9395409203        3.3710564401
 O        -9.3074599605        6.8544452834        2.4627359612
 C        -8.7332313750        6.1530929715        4.6853545238
 C        -8.5592338814        4.6362408401        4.3603046255
 C       -10.0264063175        3.8971431765        3.9829520528
 O       -10.9980283272        4.3727282780        4.4800852157
 C       -10.0951582677        2.7115087152        3.0557258069
 C       -10.6185380717        3.3124957049        1.5892535801
 O       -11.4430628688        4.2172124036        1.6395589780
 C       -10.2557560318        2.5469609496        0.3424147005
 C       -10.4480281298        3.4024239643       -0.9080911742
 C        -9.3039254958        3.3870040902       -1.8393683544
 O        -8.1577975175        3.1065226114       -1.4427538880
 C        -9.6153709865        3.8338954108       -3.2835932552
 C       -10.8196708224        2.9999123951       -4.0073515233
 O       -11.6892090555        3.6493419822       -4.4740437207
 C       -10.8362741442        1.4449591243       -4.2857339190
 C       -11.0828310078        0.3257628644       -3.2656297367
 C       -11.7270042865       -0.8627154097       -4.1196862543
 O       -12.2156646776       -0.7410897006       -5.2435118274
 C       -11.7573937505       -2.2270384276       -3.5614984345
 C       -10.2869416205       -2.5834311401       -3.1713571129
 O        -9.3691749262       -2.2770169037       -3.8673856345
 C       -10.0647098735       -3.4656810365       -1.8937957359
 C        -8.5419689079       -3.5867100982       -1.7647501271
 C        -7.8999802700       -2.3343963801       -1.1498316930
 O        -8.5911104692       -1.6085924809       -0.5426182609
 C        -6.2730487387       -2.1138435569       -1.0519422628
 C        -5.5271879232       -3.0655516371       -1.8857661052
 O        -5.2745292690       -4.2155329093       -1.5509191316
 C        -5.3104415982       -2.7224164561       -3.3299645620
 C        -6.1018757617       -0.5487938619       -1.4137807884
 C        -5.9200188582       -2.1525324081        0.5654237589
 C       -12.6742358314       -2.1042153640       -2.3887525607
 C       -12.3109210280       -3.2647717171       -4.5701718980
 C       -10.0409282359        5.3570805223       -3.4637491767
 C        -8.3316128537        3.5341786492       -4.1158654154
 C        -8.7285954147        2.2209210784        2.6484774694
 C       -11.1285369270        1.5823574856        3.5136529301
 C        -6.6022970596        7.4929311130        1.9228950467
 C        -6.3295953224        7.9071102488        4.2340037593
 C       -12.0648050420        8.8189532626        0.5143123990
 C       -12.8518353013       10.7724110785        1.6225227069
 H       -15.5569658940        8.5204333925        3.3384983954
 H       -16.0552895728        8.3070982886        1.5111549471
 H       -15.3210062095        9.8302373836        2.2284410055
 H       -10.7495111927       11.0333370972        3.9025311965
 H       -10.2640729923       10.8086847021        2.2648322699
 H        -9.3326472817        8.9359410228        4.5140755082
 H        -8.5945857481       10.4193188922        4.5662068736
 H        -9.7972988253        6.1991675718        5.0741458922
 H        -8.0451939294        6.6455366850        5.4643774029
 H        -8.1702315831        4.0672299921        5.2190883472
 H        -7.7719455984        4.4810586845        3.5779446121
 H       -10.9078927473        1.5536873313        0.4353468441
 H        -9.2406453974        2.1241943286        0.3895042018
 H       -10.6393654766        4.3749230099       -0.4385016128
 H       -11.2998246087        3.1135502386       -1.5917285136
 H        -9.9700736439        1.2494804539       -4.8777317453
 H       -11.6050084567        1.2371070268       -5.1148858965
 H       -11.6504410693        0.5351706178       -2.3436817668
 H       -10.1882948574        0.0205385884       -2.6608711778
 H       -10.4481571751       -4.4329387079       -2.2462712298
 H       -10.5197352373       -3.1739099920       -0.9739469651
 H        -8.0583070837       -3.9015404573       -2.6977159971
 H        -8.1093289214       -4.2667954786       -0.9391640583
 H        -4.7837658698       -1.7148880312       -3.3708340177
 H        -6.2808201351       -2.5529809046       -3.7363186363
 H        -4.7326664961       -3.4460105784       -3.7581976820
 H        -6.6694865217       -0.1607214771       -2.2167878426
 H        -5.0264659557       -0.4424370341       -1.5591070970
 H        -6.4469692214       -0.0613753636       -0.4934450053
 H        -6.7553832143       -1.6649012438        1.2153437132
 H        -5.0508225251       -1.6257430752        0.7757359014
 H        -5.6415957884       -3.2208355543        0.7428979429
 H       -12.2832922322       -1.3293080006       -1.7955699263
 H       -12.7406820846       -3.0103759220       -1.7102896910
 H       -13.7547140646       -2.0978507383       -2.8930138462
 H       -12.0786646586       -4.3796815312       -4.4484309791
 H       -11.8642526770       -3.0489825487       -5.5409701036
 H       -13.4038888195       -3.1914672182       -4.7461698406
 H       -10.5440908967        5.4441733837       -4.4411767616
 H        -9.2596906498        6.0537286147       -3.5386801134
 H       -10.7007312630        5.6048295755       -2.5438121588
 H        -8.1597250855        2.4520567286       -3.9539893505
 H        -7.5612288622        3.9466246487       -3.4434599278
 H        -8.4296766860        3.7943342400       -5.1362938700
 H        -8.9045671132        1.2145554175        2.2316347126
 H        -8.1117075903        2.1159801212        3.4821725167
 H        -8.2346224744        3.0015303106        1.9962473962
 H       -10.8992884187        1.2389698844        4.5180422163
 H       -11.2330500234        0.7082832596        2.8329295673
 H       -12.1464243160        2.0024718066        3.4175133034
 H        -5.9131818478        8.3637980824        1.7076756076
 H        -7.1135184006        7.2310796026        1.0098919319
 H        -5.7788698217        6.7104964689        2.0577409851
 H        -6.8000157450        8.4932781057        5.0887916710
 H        -5.3077641523        8.3694725458        3.9810266465
 H        -6.1122596282        6.9281542102        4.6574210820
 H       -11.1024719801        9.3127855130        0.3577775679
 H       -12.7879001658        9.1709123820       -0.2206414652
 H       -11.8875035224        7.7191512577        0.3889840972
 H       -13.7991494500       10.9391335222        1.1383661239
 H       -11.9927930405       11.0812488223        1.0180806576
 H       -12.8548710782       11.4054911939        2.4744081771
 Na      -11.5956792100        6.2742681321        2.9754493157
