117

 C        -7.9841981575        9.9857442020       -2.1173565632
 C        -8.0510463491        9.9898755110       -0.5620832480
 O        -9.0938642246        9.9132895249        0.0559013638
 C        -6.6058641438       10.1216222780        0.1843849901
 C        -5.5803515973        9.1332667735       -0.3445713107
 O        -5.4472484827        9.1629930449       -1.5515719580
 C        -4.7815530765        8.0609452551        0.6140057819
 C        -4.7135542399        6.6560882793        0.0083792258
 C        -6.1566445749        6.2751092899       -0.4550863046
 O        -7.1446681163        6.8759111134       -0.1226839082
 C        -6.2995761573        4.8665825615       -1.2286899435
 C        -5.8231897959        3.7915812839       -0.1681404315
 O        -4.6552916789        3.6257891993        0.1920525631
 C        -6.9137248159        2.9631568080        0.4106010181
 C        -6.7824918874        2.1842846358        1.7219995036
 C        -7.7173789196        0.9649360186        1.9402773519
 O        -8.4377196597        0.4546211481        1.0816208120
 C        -7.5688408582        0.1812849378        3.3449096563
 C        -8.7717814813        0.8153510717        4.2423365725
 O        -8.6373919938        1.5887915540        5.1818047062
 C       -10.2103410169        0.1637406004        3.9854761783
 C       -11.3261963456        1.2104383374        4.1001006241
 C       -11.1577943478        2.4132310650        3.1071114316
 O       -10.1084966414        2.5693385841        2.4849383338
 C       -12.3294968470        3.4987173446        2.9643386044
 C       -12.9713759622        3.0014163768        1.6235371866
 O       -12.3349653110        2.5386683877        0.7041670820
 C       -14.5923130797        3.0272151759        1.5420701777
 C       -15.1075156654        2.6288323558        0.1944637525
 C       -14.6242073848        3.6509712455       -1.0631667570
 O       -13.9474896270        4.6082306938       -0.7655532552
 C       -14.8241393600        3.2566857155       -2.5521386079
 C       -13.6128391041        2.5386013768       -3.0558613962
 O       -13.5856431324        1.4096179950       -3.4197282586
 C       -12.3020735579        3.4670466783       -3.0298185360
 C       -11.1512671883        2.8311685776       -3.8629234236
 C       -10.4556943714        1.7898353679       -3.0467328298
 O       -10.0543795803        2.2012720144       -1.9654384312
 C       -10.6079379405        0.3000903796       -3.2682426242
 C       -12.0029193498       -0.1442155266       -2.3149409619
 O       -12.0451656021        0.4210022024       -1.2573520057
 C       -12.8701336176       -1.3581863877       -2.6753596301
 C       -10.7760380573       -0.1503313241       -4.6895005337
 C        -9.5028120059       -0.6112420679       -2.5922945226
 C       -16.0839592029        2.3934692537       -2.7396159301
 C       -15.0389559403        4.5795793043       -3.2939415906
 C       -13.3644961011        3.3956610099        4.0571186329
 C       -11.7797931104        4.9667013975        2.8809049090
 C        -7.7727662986       -1.2976830503        3.1000763684
 C        -6.2291343144        0.5317175921        4.0444917481
 C        -7.7994230484        4.5932925542       -1.7607589805
 C        -5.4297431638        4.8876530524       -2.5299566695
 C        -6.1610701661       11.5245910991       -0.3169809383
 C        -6.8090046501       10.1038651672        1.7193325145
 H        -8.9758295613        9.9433608572       -2.5235674322
 H        -7.4511635724        9.1350929355       -2.6770559963
 H        -7.4720755112       10.9383183417       -2.3383503458
 H        -5.3213102077        7.8552138980        1.5264807127
 H        -3.8724539068        8.4591512774        0.9182856960
 H        -4.3063143268        5.8808554933        0.7327709941
 H        -4.1720659081        6.6727257946       -0.9439134720
 H        -7.2770848800        2.2372384622       -0.3820996511
 H        -7.8208006671        3.5323221395        0.6589879236
 H        -7.1745551491        2.8173937138        2.4990082754
 H        -5.6935398339        1.9700159899        1.7735373213
 H       -10.4632529449       -0.7043752715        4.6092079526
 H       -10.1179666721       -0.2255965027        2.9433810626
 H       -11.2199096550        1.7560213391        5.0839036358
 H       -12.3015767225        0.8245310779        4.1028961726
 H       -14.9159951209        4.0744508884        1.6801705506
 H       -14.9281684684        2.3256492072        2.2992172614
 H       -16.1794534101        2.7085748538        0.3030981709
 H       -14.9842189903        1.5929066034       -0.0680764937
 H       -11.9474280926        3.5202620605       -1.9980514472
 H       -12.6397500862        4.5034539473       -3.2595123747
 H       -10.4614998910        3.5285668876       -4.1228173101
 H       -11.6441232086        2.4260043166       -4.7007330638
 H       -13.8517786564       -1.1666379272       -2.0949459558
 H       -12.3062951716       -2.2409628188       -2.3771478627
 H       -12.9449269117       -1.3131199761       -3.7841303641
 H        -9.8248621931       -0.2607257811       -5.3511358361
 H       -11.4158266350        0.6010996193       -5.1923220659
 H       -11.0950328741       -1.1646729970       -4.6548556146
 H        -9.2185005141       -0.1740667055       -1.5622537020
 H        -8.6824487568       -0.7469603946       -3.1793072723
 H        -9.9262691591       -1.6043595796       -2.4223692402
 H       -16.1031910486        1.4237425833       -2.3181804650
 H       -16.2918454613        2.2884482085       -3.7836368650
 H       -16.9064078385        2.9371321294       -2.3973419023
 H       -14.6540417591        4.5177986260       -4.2775967364
 H       -14.6691817482        5.4326911680       -2.8294698522
 H       -16.1322177067        4.7513685799       -3.4068894987
 H       -12.9672672747        3.7078414209        5.0189838222
 H       -13.7540394258        2.3811084105        4.1552980359
 H       -14.0914025208        4.1193794440        3.9192188477
 H       -11.3186908024        5.1783097590        3.8818721521
 H       -12.5951200085        5.6533173444        2.8383993243
 H       -11.0853606677        5.0918030031        2.0410057252
 H        -7.7418838574       -1.8125516689        4.0430374686
 H        -7.0160289615       -1.6342837180        2.5134946587
 H        -8.6649952554       -1.6901329214        2.4927525826
 H        -5.4433301209        0.4821546618        3.2944584411
 H        -6.0207542681       -0.2019362189        4.8223423797
 H        -6.3048729561        1.5264760424        4.6081806518
 H        -8.4860889844        4.4416271721       -0.9887040789
 H        -7.7653786454        3.5969061490       -2.2524006985
 H        -8.0323780879        5.4278885470       -2.3872114321
 H        -5.4839727393        5.8385499036       -3.1058120791
 H        -5.7495812685        4.1951596006       -3.3392834095
 H        -4.3894081015        4.7164478364       -2.3157111988
 H        -5.9528356596       12.1918511541        0.5297376633
 H        -7.1020755097       11.8002473165       -0.7876083443
 H        -5.4037953265       11.3819957777       -1.1280922387
 H        -7.1843939771        9.1200163564        2.0042474812
 H        -7.5592056272       10.8385228411        2.0564802941
 H        -5.8584727474       10.2413315966        2.2317391688
 Na      -10.3136705788        1.7404483616        0.1597283695
