117

 C       -15.0864607706        8.8625937189        2.0831199209
 C       -13.6213172900        8.3193000824        1.8974407574
 O       -13.5022947281        7.1039131087        2.1275262786
 C       -12.4917874296        9.2500640640        1.7988100543
 C       -11.5217931328        9.2215951241        3.0854992389
 O       -11.7582874954        8.3746561909        3.8825834551
 C       -10.3377672601       10.1945251916        3.1874659589
 C        -8.9951899798        9.6925377133        3.8133225439
 C        -7.8684316419        9.2605772944        2.7203663524
 O        -7.7116906957       10.0552260873        1.7958989955
 C        -7.2368631017        7.8301061431        2.8861977926
 C        -8.4001071175        6.8071233012        3.1359046889
 O        -9.2785471309        6.6633185493        2.2492588146
 C        -8.5874104757        6.1986094447        4.5143736239
 C        -8.6991894801        4.6646597325        4.5273215410
 C       -10.0625304891        4.0320830278        4.1771840326
 O       -11.1318348021        4.3975637728        4.7266549179
 C       -10.1145323198        2.8119957685        3.0600529062
 C       -10.5746216431        3.5199891875        1.5866981501
 O       -11.2680606334        4.4999578645        1.4932315514
 C       -10.3844739506        2.6209771001        0.3101086691
 C       -10.8133143080        3.1513727366       -1.0798739498
 C        -9.4366323927        3.2235092654       -1.9332203122
 O        -8.4319211680        3.1036695978       -1.3097345515
 C        -9.4930403256        3.6320491361       -3.4545280521
 C       -10.7830733836        2.9540362753       -4.1829723218
 O       -11.8389670215        3.5824627228       -4.2716452403
 C       -10.5751167894        1.4510306045       -4.5675065433
 C       -11.0543846430        0.4555465939       -3.4303952293
 C       -11.9537869945       -0.7669824987       -4.0725476797
 O       -12.5026977522       -0.4694889106       -5.0852905395
 C       -11.8043914922       -2.2773163980       -3.4762804805
 C       -10.3175600207       -2.6330598142       -3.0840530793
 O        -9.4658451031       -2.2132186171       -3.8524948218
 C        -9.8936239089       -3.6525076606       -1.9145398391
 C        -8.4298818900       -3.5985196078       -1.6077022233
 C        -7.9950117480       -2.2893238414       -0.9604613920
 O        -8.9433414109       -1.6150891989       -0.5122670181
 C        -6.5459468675       -1.8987263059       -0.8170495122
 C        -5.7093783783       -2.9787969849       -1.6933152652
 O        -5.4938746316       -4.0962439545       -1.2086121250
 C        -5.1778858400       -2.7742732299       -3.0883017091
 C        -6.3354494824       -0.4616090653       -1.4065357087
 C        -6.1017573405       -2.1699558226        0.6483258918
 C       -12.8178611765       -2.3644533145       -2.2355479221
 C       -12.1646267080       -3.3931158019       -4.4218432734
 C        -9.6091256984        5.1703885350       -3.4899165678
 C        -8.2169812652        3.2978713899       -4.2046059552
 C        -8.6776495013        2.0436880481        2.9753290922
 C       -11.1123875598        1.8251237878        3.5367019153
 C        -6.3835511872        7.6078650659        1.6310317975
 C        -6.3560127527        7.9838155923        4.1829705833
 C       -11.5193743453        8.8164113096        0.5614073361
 C       -13.0236927759       10.7532553998        1.7434025042
 H       -15.7992856884        7.9846010866        2.1980402194
 H       -15.1579560232        9.3445353487        1.1347902338
 H       -15.2756253884        9.6342704606        2.9339270610
 H       -10.5010772358       11.0876747193        3.8315476949
 H       -10.1038153045       10.5371806784        2.1371363386
 H        -9.1070293170        8.7533248608        4.5489498126
 H        -8.5533482071       10.4360936031        4.4635827688
 H        -9.5280937135        6.5433501880        4.9035019472
 H        -7.8163804093        6.4789848588        5.1703605978
 H        -8.4477285570        4.4676525442        5.5888831015
 H        -7.9074404288        4.1413832512        3.9552805547
 H       -10.9924111276        1.8264267789        0.4628031786
 H        -9.3808327376        2.0941774153        0.3027676064
 H       -11.1038092088        4.1981064950       -1.0145349213
 H       -11.7100319499        2.6166694190       -1.3276406143
 H        -9.5545305956        1.2664647403       -4.9711925726
 H       -11.2260677827        1.1987557383       -5.3584602008
 H       -11.5895056826        0.8711893965       -2.5718793848
 H       -10.2652330291        0.1486090215       -2.7625731087
 H       -10.1999393677       -4.6858294338       -2.1690362271
 H       -10.4925250719       -3.2825056159       -1.0051101018
 H        -7.8317806971       -3.7096778762       -2.5558128610
 H        -8.0582703570       -4.3777148298       -0.9640478167
 H        -4.1973896018       -2.3882399749       -3.0809493093
 H        -5.8332425951       -2.1051927963       -3.6880647876
 H        -5.0239448406       -3.8857485300       -3.3725274153
 H        -6.2589370609       -0.7578554728       -2.4879032932
 H        -5.3622585258       -0.1153539959       -1.1397238578
 H        -7.1530575148        0.2447276728       -1.3005555426
 H        -6.6101926935       -1.5035181115        1.3069179631
 H        -4.9816383371       -1.9123453048        0.8052504032
 H        -6.2641178158       -3.2348709144        0.8071858455
 H       -12.6500810768       -1.4819661739       -1.5890028464
 H       -12.6253096487       -3.2093905171       -1.6534505010
 H       -13.7575950783       -2.4456942769       -2.6599678503
 H       -12.2590504515       -4.3161626188       -3.9257379564
 H       -11.4372414503       -3.5678225174       -5.2019553544
 H       -13.0355658485       -3.1494963567       -4.9863523164
 H        -9.0635704491        5.6526470713       -4.2992309906
 H        -9.0493897573        5.6042581268       -2.6188352109
 H       -10.6115266383        5.4886386304       -3.3952420525
 H        -8.2874602538        2.2100328131       -4.3109243066
 H        -7.4266114257        3.7770319039       -3.6701171539
 H        -8.4294160507        3.5842711182       -5.2069031073
 H        -8.8729923225        1.1467926599        2.5100203587
 H        -8.3316378159        1.6805373458        3.9538574013
 H        -7.9241159304        2.7528995480        2.6793111024
 H       -10.5594765591        1.0787860096        4.0647992068
 H       -11.6643507574        1.4100697548        2.7087951453
 H       -11.8611631998        2.2207410142        4.1594593233
 H        -5.9363647086        8.4606707381        1.1319971146
 H        -6.8890405511        6.9412408071        0.8864671024
 H        -5.5004304348        7.1158592383        1.8965490491
 H        -6.8406076751        8.2310919428        5.1004559004
 H        -5.7498300570        8.7655412356        3.9481005268
 H        -5.5895548432        7.2109267746        4.2345023531
 H       -10.5263388039        9.2663648511        0.6345769898
 H       -12.0547715536        8.9436091355       -0.3822164133
 H       -11.3298866969        7.7298912903        0.6462917161
 H       -13.5971628667       10.9689887513        0.7904265299
 H       -12.1939326461       11.4980448044        1.8146253948
 H       -13.7207476782       10.9858013109        2.5985481720
 Na      -11.6434975417        6.1702242678        2.7763310599
