117

 C       -15.1265758208        8.7728979778        1.8919346800
 C       -13.6187232893        8.3299301490        1.9669824182
 O       -13.4210283743        7.1454724447        2.0250239975
 C       -12.4077816923        9.3257164975        1.8789169894
 C       -11.4275469878        9.1595967900        3.0142083366
 O       -11.7706027259        8.3945586615        3.9260821484
 C       -10.3507155049       10.1807111894        3.1486074459
 C        -9.0382710504        9.7068969371        3.7787158075
 C        -8.0255325827        9.2872918323        2.6467027321
 O        -7.6492745899       10.0456859164        1.8291807366
 C        -7.2713552091        7.9143554168        2.7524651034
 C        -8.3787599574        6.8919174627        3.0320104090
 O        -9.1261077660        6.5898760634        2.1354634306
 C        -8.5456228118        6.2834506293        4.5445369428
 C        -8.6969084622        4.7351798282        4.6425883679
 C       -10.0059024817        4.1030770120        4.0436185108
 O       -11.0865718212        4.5005450671        4.5559228248
 C       -10.1380037359        2.8916201100        3.0115975999
 C       -10.5172866760        3.3937082868        1.5607405976
 O       -11.0503589072        4.4754136763        1.4562617442
 C       -10.4512679904        2.4823613649        0.3581979622
 C       -10.7871456151        3.0896089079       -1.0424998551
 C        -9.5139230322        3.2354932877       -1.9278397623
 O        -8.4381096896        3.0506814524       -1.3683560520
 C        -9.4879568337        3.5463831067       -3.5159396243
 C       -10.7220089056        2.8751618183       -4.1756183439
 O       -11.8048026483        3.3859529076       -4.1167710074
 C       -10.7202539266        1.4050770743       -4.7130198059
 C       -11.1236868688        0.5095181126       -3.6007977034
 C       -11.7866521748       -0.8273796808       -4.0446512929
 O       -12.7296328138       -0.7385165867       -4.8284341351
 C       -11.7393874606       -2.2563855245       -3.4059501848
 C       -10.2995338551       -2.5328632373       -3.0544574660
 O        -9.4137052266       -2.1400057372       -3.7630890585
 C       -10.0148090384       -3.6556693797       -2.0337331287
 C        -8.5570844760       -3.5759869125       -1.6482310437
 C        -8.2844800070       -2.2304385156       -0.9025545144
 O        -9.1313490674       -1.5260746598       -0.5040704195
 C        -6.6262365575       -1.9319085565       -0.8568102784
 C        -5.7829749163       -2.9816095089       -1.5622685364
 O        -5.6168524719       -4.0406221202       -0.9150486166
 C        -5.1626675643       -2.7020649435       -2.9256506829
 C        -6.3235001908       -0.4917572002       -1.3843658656
 C        -6.0269709235       -2.1017859191        0.6584771892
 C       -12.7284312227       -2.3511319661       -2.1653908973
 C       -12.2270071887       -3.2857211204       -4.5020796038
 C        -9.5568695161        5.1255357898       -3.4049081867
 C        -8.0083107767        3.1398809460       -4.0914871884
 C        -8.8940822638        2.0950252110        2.9007428014
 C       -11.3067855418        1.8860745816        3.5334149415
 C        -6.4616092022        7.4313567913        1.6148518742
 C        -6.2974755642        8.1409559410        4.0004578469
 C       -11.4076632881        8.8965544355        0.6832963117
 C       -12.7517890678       10.8568267293        1.6301213950
 H       -15.6387527819        8.1693533735        1.1827107642
 H       -15.1694460174        9.8124265468        1.6226917121
 H       -15.5671013709        8.5990527637        2.7768763787
 H       -10.7689717386       11.0205512971        3.8809253312
 H       -10.0903948474       10.6511553813        2.1262104089
 H        -9.0980219344        8.8137530234        4.4126568276
 H        -8.4717441394       10.4021261716        4.4510489367
 H        -9.3101793939        6.8707403709        5.0752742369
 H        -7.5808205987        6.4325324395        5.0125626989
 H        -8.6466216283        4.6308498414        5.6361819941
 H        -7.8093232025        4.3064409282        4.2487351318
 H       -11.0011702699        1.5920593817        0.4324722797
 H        -9.4555766905        2.0806102750        0.3265618499
 H       -11.2149272213        4.1153741292       -1.1079908723
 H       -11.6390625300        2.4430243455       -1.3393342367
 H        -9.7365158469        1.1309863056       -5.0305687358
 H       -11.4075568952        1.3444282852       -5.6471960264
 H       -11.7831809350        0.8321237395       -2.8952430986
 H       -10.3356437060        0.4898640167       -2.8698327460
 H       -10.2347333911       -4.6028338337       -2.5091451901
 H       -10.6942124666       -3.5418367350       -1.1684474072
 H        -7.9027009495       -3.6121135974       -2.4254889697
 H        -8.2126579734       -4.4221500354       -1.0637191350
 H        -4.1320927309       -2.3523451521       -2.6229901583
 H        -5.6412321757       -1.8609681914       -3.3955011302
 H        -4.9894496603       -3.6100984143       -3.4337825582
 H        -6.1210182925       -0.4730756058       -2.4500957760
 H        -5.5094387193       -0.0224671697       -0.8675402684
 H        -7.3442031763       -0.0597777070       -1.1691154960
 H        -6.2354517118       -1.2007596620        1.2329901052
 H        -5.0310460119       -2.0313736623        0.5771748131
 H        -6.3253956616       -3.0507743856        1.0949110307
 H       -12.4587178747       -1.6931456106       -1.3824065533
 H       -12.6468685749       -3.3879364124       -1.8964827537
 H       -13.7870588340       -2.1498632194       -2.6780152896
 H       -12.4999679938       -4.2658133783       -4.0357280591
 H       -11.4554436792       -3.5258441060       -5.1763936780
 H       -12.9312024252       -2.8962131993       -5.1723184472
 H        -8.8215876472        5.5668295355       -4.0726660153
 H        -9.1814068292        5.4816821758       -2.5151031954
 H       -10.5906499758        5.6259456132       -3.5680560644
 H        -7.8010401482        2.0515102577       -3.8225326666
 H        -7.4634432094        4.0156444795       -3.6325838524
 H        -8.1130408840        3.0677415970       -5.1718949423
 H        -9.3145187093        1.3187376237        2.3020994717
 H        -8.6068344655        1.5032676375        3.7535326487
 H        -7.9969234595        2.7642681016        2.6550954747
 H       -10.9113712989        1.1063334781        4.1624253597
 H       -11.8033960436        1.5191607325        2.5751304318
 H       -12.0894611993        2.3958446030        4.0612203770
 H        -5.9015218940        8.2368296255        1.1795261661
 H        -7.0043442062        6.9351252936        0.8776118058
 H        -5.6485737135        6.8635593758        1.9259239248
 H        -6.9433758838        8.3975292262        4.8744116275
 H        -5.4643632332        8.8152104054        3.8616122126
 H        -5.7382976400        7.2625079000        4.0782357262
 H       -10.5010232883        9.5387549932        0.6300934658
 H       -11.9868598007        8.8096561602       -0.2008880729
 H       -11.0115636645        7.8604517107        0.8370725483
 H       -13.1061408865       11.0134032104        0.5923756206
 H       -12.0376937375       11.7429041902        1.9232841690
 H       -13.5888816262       11.0481878635        2.2826751278
 Na      -11.5212384546        6.0813522641        2.8738071970
