117

 C       -14.6605559694        9.0041904748        1.2271672632
 C       -13.2562568841        8.5940575553        1.6226849421
 O       -13.1570838476        7.3928995403        1.8901992826
 C       -12.0273125007        9.4713121045        1.5652716578
 C       -11.1728236045        9.3283936507        2.8622607653
 O       -11.1168043465        8.3886575026        3.6622996397
 C       -10.2238201595       10.5828482502        3.1504853808
 C        -8.9238984051       10.0753455063        3.8523006494
 C        -8.0668189019        9.3677511407        2.6494708707
 O        -8.3499530016        9.7740747689        1.5310916244
 C        -7.2237164228        7.9476026303        2.7984848670
 C        -8.2149230389        6.8628684427        3.0537378286
 O        -9.1214329721        6.8339219367        2.2415051353
 C        -8.0953831429        5.8288324405        4.3511345582
 C        -8.4194744895        4.3736318810        4.0933815696
 C        -9.9909259680        4.1842079554        3.8457375953
 O       -10.7039616361        5.0161479431        4.2539898997
 C       -10.4220853641        2.9015589423        3.0444469314
 C       -10.5565797881        3.3008511998        1.5485197888
 O       -10.8993711311        4.4392217866        1.1639054933
 C       -10.3812760636        2.2332728144        0.4195020799
 C       -10.6688682588        2.8416813173       -0.9611010279
 C        -9.3934784263        2.7070716655       -1.9424482239
 O        -8.3420660478        2.5170823332       -1.3574377214
 C        -9.3125651731        3.0481616470       -3.3980040632
 C       -10.8125961051        2.7812399628       -3.8853365911
 O       -11.7882233738        3.4162836135       -3.4881822670
 C       -11.1505140202        1.4161248129       -4.5423511212
 C       -11.4167081069        0.2779249320       -3.4586490999
 C       -12.0362954906       -0.9382267719       -4.1019755119
 O       -12.7627382504       -0.8482396849       -5.0395182966
 C       -11.9171052305       -2.3173253040       -3.3055106667
 C       -10.4574520702       -2.6054762747       -2.9525251064
 O        -9.5302430947       -2.0808184562       -3.5746464247
 C       -10.1013415147       -3.6913463890       -1.9979681224
 C        -8.6320888631       -3.5077709033       -1.6211044854
 C        -8.5570483983       -2.1721791899       -0.7620081997
 O        -9.6163390159       -1.4966970434       -0.5369129166
 C        -6.9898365000       -1.7270589496       -0.5129361364
 C        -5.8900822801       -2.9501437292       -0.8698755870
 O        -5.9144621016       -3.8740566308       -0.1327201296
 C        -4.8309178769       -2.6710847461       -1.9852758031
 C        -6.7899778324       -0.2907540479       -1.2269141074
 C        -6.8887345526       -1.4988722340        1.0504278606
 C       -12.8446867702       -2.3170942817       -1.9809042622
 C       -12.2988565958       -3.3313356685       -4.3538810671
 C        -9.0619940554        4.6529877783       -3.3307358494
 C        -8.1439891974        2.2281273443       -4.1098181472
 C        -9.2373215524        1.8249176976        3.1023556202
 C       -11.7170154206        2.3696002625        3.4496840565
 C        -6.7079103311        7.7081032266        1.3327228019
 C        -6.0099548449        8.0064759110        3.7513260174
 C       -11.0554211339        9.0928561036        0.3508923573
 C       -12.4121237359       10.9615000139        1.2956503381
 H       -15.2829416906        8.2707458141        1.6474262500
 H       -14.6749467399        8.8777104572        0.2253939576
 H       -15.0110547981       10.0230687234        1.4685254918
 H       -10.7129810834       11.4263780994        3.7998502696
 H        -9.8766279047       11.0789324302        2.1639207545
 H        -8.9490834508        9.5572798112        4.7830631946
 H        -8.3312675593       11.0161726348        3.9964703026
 H        -8.8105832947        5.9968251533        5.1375258758
 H        -7.0356170834        5.9695829759        4.7616787461
 H        -8.0871648873        3.7933299326        4.9276841661
 H        -7.9147355494        4.1980182985        3.2176049856
 H       -11.1263208400        1.4890227403        0.9164666597
 H        -9.5145306941        1.6795622968        0.4805065747
 H       -11.1639740136        3.8275753180       -0.7874358152
 H       -11.4916194425        2.2905475358       -1.5042148484
 H       -10.2269295679        1.1054364149       -5.0909519757
 H       -12.0100969168        1.5466703618       -5.2316256913
 H       -12.0394647608        0.5704680400       -2.6465220815
 H       -10.6108017261       -0.0619108212       -2.8676686763
 H       -10.2411633553       -4.6608915926       -2.5239233879
 H       -10.7378442784       -3.6542731457       -1.1500091647
 H        -7.8809169512       -3.5346872968       -2.3663882130
 H        -8.3990881791       -4.3634522512       -1.0296155924
 H        -4.3687936534       -1.7936633623       -1.6499811053
 H        -5.2816646154       -2.6151173948       -2.9650468812
 H        -4.0801351091       -3.4874015650       -1.9359121310
 H        -6.5065870228       -0.3719134757       -2.2617843506
 H        -6.0519501053        0.3100234773       -0.5809262036
 H        -7.7718394487        0.1215635576       -1.2423413794
 H        -7.6843640245       -1.0708791183        1.5526830140
 H        -5.9636318051       -0.8435374091        1.1576847357
 H        -6.6955393905       -2.4178725721        1.5101430942
 H       -12.7286851806       -1.3163789298       -1.5154550194
 H       -12.5371970988       -3.2265235946       -1.4477927380
 H       -13.8045363043       -2.1990697081       -2.2382188266
 H       -11.9917117537       -4.2801569307       -4.0587489671
 H       -11.6773367018       -3.0973114545       -5.2417045569
 H       -13.3736717645       -3.3606361668       -4.6200466245
 H        -9.8436655846        5.2122662203       -3.8356134264
 H        -8.0118703597        4.9891344566       -3.6210513277
 H        -9.1283723700        5.0194904629       -2.3518870251
 H        -8.5635854921        1.2293415600       -3.8929936599
 H        -7.3140363095        2.4918069824       -3.4436272217
 H        -8.0051995354        2.6398519746       -5.1935661711
 H        -9.4005794246        0.9478103553        2.3788752346
 H        -9.1674333140        1.5694744190        4.1957504434
 H        -8.2887403337        2.2336841268        2.7326930082
 H       -11.8015732345        2.3071696179        4.5412180499
 H       -11.8475790470        1.4159241282        3.0814693592
 H       -12.5033352275        3.1275979498        3.2724235562
 H        -6.3149237931        8.5978857698        1.0013762397
 H        -7.5270257599        7.5171636302        0.6889392457
 H        -5.9511868063        6.9689667755        1.1074051044
 H        -6.1437565627        7.6510985004        4.7360166024
 H        -5.3999833650        8.9470337379        3.7461699404
 H        -5.4223378057        7.1941496368        3.2517780415
 H       -10.1160677971        9.5815473733        0.5719474300
 H       -11.4502156576        9.6048023208       -0.6055627396
 H       -10.9290503652        8.0591338783        0.0698277500
 H       -12.5780074851       11.0707888856        0.1973535523
 H       -11.5560630303       11.5664665865        1.2765011638
 H       -13.1390646594       11.5260874383        1.9608893157
 Na      -11.2585892546        6.2571976704        2.3682493161
