117

 C       -14.4962552889        9.2518327364        1.1234984377
 C       -13.2145140613        8.6204228962        1.4984420574
 O       -13.0889623770        7.4154730082        1.8512495662
 C       -11.9647471652        9.6690701237        1.5444366156
 C       -11.0864792651        9.4191101395        2.8539075239
 O       -11.1302081506        8.3575760071        3.3781581634
 C       -10.2136032312       10.6049316675        3.2946243160
 C        -8.8208881347       10.0427937234        3.7425343606
 C        -8.1186747055        9.2733809444        2.5425151534
 O        -8.2684380717        9.6796974105        1.4475403640
 C        -7.1101295393        8.0378873874        2.7583497896
 C        -8.1755318555        6.8272616493        3.0490634662
 O        -9.1723569551        6.7848300127        2.2998746714
 C        -8.0565629191        5.9123596282        4.1812672903
 C        -8.4007633721        4.4310036372        3.9688307646
 C        -9.8369432716        4.2233253301        3.7353733138
 O       -10.6353730737        4.9751530336        4.1970763093
 C       -10.3901814646        2.9060453302        2.9864856679
 C       -10.6721419239        3.1985829632        1.4799974103
 O       -10.9516775573        4.3444658604        1.1170360023
 C       -10.2992673710        2.2300066989        0.3315023190
 C       -10.5693158450        2.7674018903       -1.0323121857
 C        -9.2861829547        2.6049097038       -1.7397287007
 O        -8.2399305063        2.2779495886       -1.2667509689
 C        -9.4342706849        2.9632242950       -3.2535320580
 C       -10.9014252716        2.7663183460       -3.7849232532
 O       -11.6962223112        3.6756891386       -3.6245915651
 C       -11.3307378557        1.4641959152       -4.5182101482
 C       -11.5213990723        0.3292302867       -3.4152169273
 C       -12.2173863446       -0.8929970887       -4.1223377712
 O       -12.5641327591       -0.8720868346       -5.2951153765
 C       -12.0723665431       -2.3003823026       -3.3113707591
 C       -10.5356876669       -2.7072729473       -2.9077244932
 O        -9.7128899398       -2.2007841410       -3.6387689394
 C       -10.0380631049       -3.9249722299       -1.8811882333
 C        -8.6307781629       -3.4993271748       -1.5427478764
 C        -8.4308182257       -2.2618088573       -0.7943946366
 O        -9.4153077335       -1.5460653105       -0.5117068170
 C        -7.0547164417       -1.6492546638       -0.3752197294
 C        -5.9701364273       -2.6530245700       -0.6256349727
 O        -5.9635939694       -3.7384620246       -0.0416182932
 C        -4.8308133099       -2.6629163859       -1.7459035738
 C        -6.9150818183       -0.3477231317       -1.2176908889
 C        -7.0659782648       -1.4264718734        1.1785001170
 C       -12.9261055310       -2.3687645079       -1.9661365099
 C       -12.3532713052       -3.4082625361       -4.3250370221
 C        -9.0166419667        4.4868902127       -3.4389801719
 C        -8.3545649864        2.1949977532       -4.0478990347
 C        -9.4153420097        1.6127865173        3.2462544973
 C       -11.7287328777        2.5744090454        3.6503835193
 C        -6.4643468217        7.8780871479        1.3773081435
 C        -5.9622554108        8.2908623352        3.7826412433
 C       -11.0724496452        9.0356269268        0.3157437934
 C       -12.3866466394       11.0721310577        1.2790003728
 H       -15.2849093044        8.6507989811        0.5226675808
 H       -14.2767078056       10.2175452765        0.5372731573
 H       -14.9136560117        9.6171034363        2.0487470955
 H       -10.6608371265       11.0568345045        4.1450926854
 H       -10.1689316438       11.3737650905        2.5095914575
 H        -8.8544194104        9.3860325255        4.6370373358
 H        -8.2065515132       10.8351758194        3.9367844072
 H        -8.8543140256        6.0861584069        4.9970030793
 H        -7.0389374168        6.1069550913        4.6014191497
 H        -8.2359628569        3.8555543830        4.9160837451
 H        -7.8090095104        4.0933467504        3.0653738666
 H       -10.5415522799        1.2187601991        0.5623072119
 H        -9.1729557760        2.0278828287        0.4830307080
 H       -10.9297251224        3.8562292573       -1.0419767272
 H       -11.3791430379        2.2625446962       -1.6138895841
 H       -10.4488499651        1.2219586154       -5.2037439424
 H       -12.2229989709        1.5816406262       -5.0537786714
 H       -12.2042286340        0.7613324241       -2.6196605808
 H       -10.7094174302       -0.0988468475       -2.7807915210
 H        -9.9911938058       -4.7923693941       -2.4809558331
 H       -10.8204717001       -3.9802238464       -1.1358046022
 H        -8.0730786973       -3.4148257363       -2.5311199116
 H        -8.0069392167       -4.2456450138       -1.0279083689
 H        -4.0502251363       -2.0083137957       -1.6184964162
 H        -5.3886601045       -2.5770117361       -2.6577990019
 H        -4.4541807822       -3.7045255317       -1.7563700392
 H        -6.4384401772       -0.7495982569       -2.1501683221
 H        -6.3148516395        0.4013859991       -0.7282874887
 H        -7.8797332221       -0.0195136039       -1.5716468630
 H        -7.6873465804       -0.6737811108        1.5452862170
 H        -6.0220419346       -1.1557569737        1.4424075548
 H        -7.2927105079       -2.3396376629        1.6852324626
 H       -12.6198960157       -1.4625250425       -1.3719493275
 H       -12.7560104693       -3.3758541237       -1.6060826944
 H       -13.9611463668       -2.0009459608       -2.1709348913
 H       -12.4251381707       -4.4148090579       -3.9286433388
 H       -11.4267318265       -3.4121943405       -4.9889659943
 H       -13.2578045296       -3.1977504609       -4.9332337186
 H        -9.8182927239        5.1260955026       -3.7962045971
 H        -8.0448231959        4.6314532635       -3.9792936229
 H        -8.7592923815        4.9743456084       -2.5216418030
 H        -8.6433477650        1.1469463850       -3.7374043577
 H        -7.4246697937        2.5223455058       -3.5478844051
 H        -8.4073803068        2.5342084439       -5.0517019894
 H        -9.8636423648        0.7332403916        2.8362643885
 H        -9.2972157944        1.6384114823        4.3784501583
 H        -8.4723718724        1.6044973075        2.6681993118
 H       -11.6255301289        2.1507348671        4.6891583767
 H       -12.1828715007        1.7067135246        3.0960962183
 H       -12.3222420927        3.4433576518        3.8417381598
 H        -5.9845064105        8.8107596825        1.0778442195
 H        -7.2326711339        7.6983598180        0.5956059839
 H        -5.8213114094        7.0788596618        1.2459950827
 H        -6.2080920352        8.0361647211        4.8694849391
 H        -5.5757200710        9.2849505539        3.6763765675
 H        -5.1447743711        7.5081868326        3.5177815102
 H       -10.0431930797        9.4350789529        0.2675918036
 H       -11.5725143673        9.3064366297       -0.6375390757
 H       -11.1158876973        7.9280133344        0.3045108659
 H       -13.0235714256       11.1466652892        0.4282460325
 H       -11.6492358664       11.8742138040        0.9781636845
 H       -12.9158145866       11.4034251148        2.1551802100
 Na      -11.3488925683        6.1342159033        2.4018429283
