117

 C        -8.2986422345        9.8679624675       -2.2046230647
 C        -8.1013458408        9.9194683342       -0.5940142848
 O        -9.0946636990        9.9984399406        0.1199528534
 C        -6.7214457548       10.1131020446       -0.0492358228
 C        -5.6844906524        9.1439846774       -0.5306564491
 O        -5.2665444923        9.0329681489       -1.6912139168
 C        -4.9157787762        8.2293609797        0.4430545513
 C        -4.8554037076        6.8009333306       -0.2059109460
 C        -6.2138185668        6.2303363777       -0.5473740309
 O        -7.1973231154        6.7891401517       -0.1645681464
 C        -6.2501990210        4.8645770581       -1.2793420648
 C        -5.9062290395        3.8044035610       -0.1894321476
 O        -4.7064484008        3.7739395419        0.1664781682
 C        -7.0072245448        2.8664721113        0.3996760824
 C        -6.6338677437        2.2158050150        1.7331864213
 C        -7.5383998634        1.0084031568        2.0187100958
 O        -8.2498428763        0.5715326219        1.1066701630
 C        -7.4919333082        0.2678669773        3.4444827529
 C        -8.7387871240        0.7762144024        4.3053695173
 O        -8.5047943699        1.5164357457        5.2053110854
 C       -10.1243897835        0.3084060467        3.8932122817
 C       -11.1661528322        1.3114969682        4.0854467211
 C       -11.0509729728        2.4958836073        3.1196387643
 O       -10.1305599925        2.6674375009        2.3164475048
 C       -12.3710506851        3.4056421723        3.0519589089
 C       -13.0003325438        2.9714496962        1.6016565013
 O       -12.3966365425        2.6447304128        0.5960190376
 C       -14.5651841923        2.9992761911        1.5195890728
 C       -15.0844657422        2.7172241088        0.1157298054
 C       -14.5376340198        3.6723422438       -1.0329491547
 O       -13.9803565212        4.6438778381       -0.6849688928
 C       -14.8894667839        3.2907962598       -2.5183131243
 C       -13.5992753807        2.4829609662       -2.9513707498
 O       -13.5210332917        1.3126554590       -3.1336850113
 C       -12.3215098670        3.3891018070       -3.0652530385
 C       -11.1636055261        2.7012835595       -3.8933050774
 C       -10.5334979222        1.7974245741       -2.8742000366
 O       -10.0244129655        2.2417612262       -1.8433462051
 C       -10.7484169854        0.2191932786       -3.1078453934
 C       -11.9706686984       -0.1636776860       -2.2871695987
 O       -12.1862695474        0.3685716780       -1.1717439834
 C       -12.7756363690       -1.2829229591       -2.7570022633
 C       -10.7465765581       -0.2063857565       -4.6413945501
 C        -9.5911749025       -0.7149297065       -2.4666010766
 C       -16.0665827071        2.2862537358       -2.7364253070
 C       -15.1000436055        4.5923028331       -3.4021184496
 C       -13.2823642850        3.4365512185        4.2312006382
 C       -11.8945205541        4.8536874548        2.8892331789
 C        -7.7779538622       -1.1762992595        3.2773233459
 C        -6.2196842716        0.5447938575        4.1624785794
 C        -7.7155360722        4.7802997574       -1.7827014603
 C        -5.1766824670        4.6788835594       -2.3834356205
 C        -6.1910696228       11.6050404635       -0.4941039347
 C        -6.8177999352        9.9704600546        1.5225310725
 H        -9.3706688655        9.5059596605       -2.3584465466
 H        -7.7511038413        9.0395613457       -2.6948798418
 H        -8.0108303084       10.8309247575       -2.7103593676
 H        -5.2090825800        8.0630175562        1.5441393380
 H        -3.8828636474        8.7066920000        0.5340158496
 H        -4.3823816150        6.0494923393        0.4641910084
 H        -4.3147138101        6.8684057252       -1.1694206420
 H        -7.3278776880        2.0537740110       -0.2362776438
 H        -7.9267128471        3.4095823840        0.5743261045
 H        -6.6753874665        2.8759468827        2.6401506262
 H        -5.7068584807        1.9074707506        1.4439987970
 H       -10.3735232987       -0.5859449052        4.4956708543
 H       -10.0883806075       -0.0939081391        2.8201018560
 H       -11.3612268058        1.6624040766        5.1381575585
 H       -12.1456960817        0.8702698280        3.7920834134
 H       -14.9023567648        3.9033250344        1.9560463666
 H       -14.7468463757        2.1220528029        2.0955721660
 H       -16.2410619933        2.8171670448        0.0708980736
 H       -14.9473762196        1.6249206936       -0.1198317727
 H       -11.9575696468        3.6603091765       -2.0994900060
 H       -12.6871343734        4.3504642924       -3.5159917045
 H       -10.4425107253        3.4983316694       -4.0438297531
 H       -11.5458372744        2.3569253135       -4.8438941146
 H       -13.6502872297       -1.1696832718       -2.0748139173
 H       -12.2316562820       -2.2233710167       -2.6284308453
 H       -12.9554816852       -1.0838863886       -3.7992656816
 H        -9.8242980170        0.1845856227       -5.1530414863
 H       -11.5708699943        0.4128701923       -5.0952005736
 H       -10.7353568574       -1.2873621306       -4.8627895024
 H        -9.4154589036       -0.3227321178       -1.4315508919
 H        -8.6770705117       -0.6251972461       -3.0339810049
 H        -9.8701077809       -1.7731933681       -2.3920130571
 H       -15.7981276441        1.3118717573       -2.5073062273
 H       -16.3573572775        2.3212304775       -3.7731251658
 H       -17.0436304970        2.4739737540       -2.1995188247
 H       -14.4487111013        4.7275349743       -4.2224106344
 H       -15.0216513288        5.4423007410       -2.8004890892
 H       -16.1596229819        4.6336339822       -3.7692248254
 H       -12.7389029923        3.5424057881        5.1422196028
 H       -13.7789331036        2.5117490080        4.3566465419
 H       -13.9181327731        4.2823582934        4.1824696561
 H       -11.6472494183        5.1127882915        3.8733258520
 H       -12.6398927036        5.5556206048        2.6282868240
 H       -11.0275733500        4.8908879654        2.2295889287
 H        -7.7075537298       -1.7366830674        4.2045528828
 H        -7.1444212452       -1.6457072052        2.4983696413
 H        -8.7552223946       -1.3994961443        2.8376523472
 H        -5.3884138506        0.2105175105        3.5608866885
 H        -6.3021984774       -0.1793576833        4.9383692649
 H        -6.1191182392        1.4764901211        4.7130396473
 H        -8.3401510434        4.9450951228       -0.8840619369
 H        -8.0205553846        3.7785465086       -2.0987316789
 H        -7.8173648839        5.6103247321       -2.4168017426
 H        -5.1389580218        5.4137987074       -3.1635426618
 H        -5.4207697464        3.8021718520       -3.0322662265
 H        -4.1596115008        4.5786463918       -1.9534406181
 H        -5.9501845303       12.0896028189        0.4495493591
 H        -7.0223883020       12.0658918106       -1.0262677077
 H        -5.4285352073       11.4127836100       -1.2085697609
 H        -7.2390414141        8.9787545391        1.6985607264
 H        -7.4863624437       10.6906984358        1.9380992216
 H        -5.8509989265       10.0432786089        2.0298256647
 Na      -10.3971849856        1.7107688914        0.2221618771
