117

 C       -14.5488424311        9.8515078284        1.2281706220
 C       -13.2375539633        9.1653076985        1.1239747202
 O       -13.3626277389        7.9740651860        1.3194732526
 C       -11.8391301298        9.7631986382        1.0420061039
 C       -10.9622509860        9.5369722308        2.3945787667
 O       -10.9926752357        8.4371747138        2.9213855179
 C        -9.9822623147       10.6148516739        3.0803981509
 C        -8.6708763992        9.9190177224        3.6569238003
 C        -7.8891694516        9.3252964050        2.4936803436
 O        -7.9490548441        9.7773640914        1.3873154445
 C        -6.9773911592        8.0356916449        2.7971983844
 C        -7.8015200624        6.7245171283        2.5911719366
 O        -8.7694853301        6.7524267329        1.8763003843
 C        -7.2426772847        5.5821326056        3.4381242513
 C        -8.1762138878        4.2821295810        3.1566723463
 C        -9.5860299087        4.3262813522        3.6353926187
 O       -10.1236149993        5.3129795660        4.2584936805
 C       -10.4369209428        3.0367846060        3.3290387013
 C       -10.7149104710        3.1796211390        1.6801804959
 O       -11.3614299951        4.0842078539        1.2658210273
 C        -9.9004805086        2.3084828803        0.7318172688
 C       -10.5255755721        2.4057063638       -0.6299419494
 C        -9.3684440541        2.2225761418       -1.7662961043
 O        -8.2390609318        2.2091277841       -1.3223223577
 C        -9.6758452807        2.3767098520       -3.4449640935
 C       -11.1450611661        2.6431675961       -3.8517044036
 O       -11.5435581211        3.7838837798       -3.8880743816
 C       -12.0713427677        1.4861889792       -4.2295699149
 C       -11.7264199662        0.2090965624       -3.3566676180
 C       -11.9592176757       -1.0952220798       -4.1644349734
 O       -11.9596816189       -1.0464503632       -5.3447379628
 C       -12.0044044582       -2.4484972803       -3.3652650666
 C       -10.5247149788       -2.8414789300       -3.1304781910
 O        -9.6531085521       -2.3495646287       -3.7954510267
 C       -10.1908917534       -3.7612929505       -1.8983930365
 C        -8.7710076465       -3.4379759966       -1.3804003828
 C        -8.7845136682       -2.1381965529       -0.5680437554
 O        -9.5681524628       -1.3371536871       -0.2147655883
 C        -7.3282257734       -1.6833170969       -0.0841503996
 C        -6.2724687180       -2.8583835302        0.1164498242
 O        -6.4864941984       -3.6537042322        0.9947140700
 C        -4.9298458462       -2.8262486435       -0.5542881466
 C        -7.0446107156       -0.5986854268       -1.2399219294
 C        -7.3216855921       -0.9724670774        1.3322598348
 C       -12.8877762416       -2.2049913810       -2.1729853562
 C       -12.7606996797       -3.4767569735       -4.2855716233
 C        -8.9915026705        3.7891860715       -3.7796771600
 C        -8.9680095475        1.2820036990       -4.2255937727
 C        -9.6202288148        1.8022787818        3.8320267083
 C       -11.8067474626        3.1849058405        4.0528224837
 C        -6.0162385308        8.1661827248        1.6258352220
 C        -6.3173633357        8.1391244463        4.2450161816
 C       -10.9857077282        9.1584773398       -0.1079342834
 C       -11.8979918896       11.3470276794        0.9004974753
 H       -14.7688662943       10.9160746545        0.8761890936
 H       -14.7650698168        9.6844419606        2.2973374569
 H       -15.2281605937        8.9678765744        0.7623830305
 H       -10.6880081989       11.0619890385        3.7021308295
 H        -9.8493155260       11.3586061822        2.3853973855
 H        -8.8541512972        9.2435599453        4.4453042674
 H        -8.0234970527       10.7296444343        4.0894485383
 H        -7.1565021666        5.8172816777        4.5562968677
 H        -6.2188324018        5.2551721239        3.2173580681
 H        -7.7153373529        3.4406544071        3.7677626201
 H        -8.3179233684        3.8590064906        2.0807579082
 H        -9.7812123121        1.3829033245        1.2583671607
 H        -8.7779324422        2.6100145819        0.6275862422
 H       -10.8682789173        3.4648300558       -0.6870566876
 H       -11.2865681941        1.6777594181       -0.9740870336
 H       -11.9843318949        1.2315155247       -5.2708281268
 H       -13.1412265811        1.8567123360       -4.1930170359
 H       -12.5042654409        0.3035758054       -2.4810198168
 H       -10.6436154069        0.3598960972       -3.0280634579
 H       -10.2852364227       -4.7195707981       -2.3403832203
 H       -11.0048311199       -3.6512586626       -1.1868248191
 H        -7.9066305738       -3.3216172939       -2.0501679102
 H        -8.4114737738       -4.2639505653       -0.6900446087
 H        -4.4014706190       -1.8611612021       -0.3149850265
 H        -5.1471604316       -2.9637490585       -1.5605313471
 H        -4.4497100215       -3.6990866559       -0.2834049082
 H        -6.6836241192       -0.9694934795       -2.2021125654
 H        -6.3294283768        0.1269232495       -0.8236390610
 H        -8.0080536914       -0.0238268799       -1.2933199519
 H        -8.3108820545       -0.5443602069        1.4894816564
 H        -6.6205361403       -0.2277013609        1.4415979895
 H        -7.0301429554       -1.6377041600        2.0825230917
 H       -12.2297823673       -1.9388049224       -1.3412234054
 H       -13.3838616486       -3.2158009191       -1.8860126170
 H       -13.7989792195       -1.6313844431       -2.5146576387
 H       -12.2961580203       -4.5110006212       -4.1073008611
 H       -12.5463644156       -3.2152468121       -5.2990589968
 H       -13.7963629536       -3.5959201734       -3.9942595381
 H        -8.5785612272        4.4214368638       -2.9869326322
 H        -9.5494536358        4.4754543226       -4.3309441784
 H        -8.0422215830        3.6053693722       -4.3699555972
 H        -9.6622438181        0.5399280817       -4.3612594159
 H        -8.2498759503        0.8297635981       -3.5718763494
 H        -8.6240513407        1.8869972979       -5.0713657443
 H       -10.0796353873        0.8375032022        3.3628140902
 H        -9.8720549989        1.7557885944        4.9249745930
 H        -8.5301066262        1.7674154123        3.6903445976
 H       -11.6538095871        3.6961173712        5.0083410514
 H       -12.2999675528        2.2303935922        4.3306655142
 H       -12.4937452939        3.7413911105        3.3342365191
 H        -5.5228918597        9.0892323072        1.4449491932
 H        -6.4751207647        7.9320596659        0.7360083882
 H        -5.3409101375        7.3021137753        1.7670344229
 H        -7.0507707662        7.9114073672        5.0457315391
 H        -5.8952505952        9.2080969151        4.3513981627
 H        -5.5995215740        7.3619582616        4.4482872445
 H        -9.9308445548        9.2669179289        0.2582520240
 H       -10.8993197691        9.7229651620       -1.0208415990
 H       -11.1954308024        8.0763886224       -0.2430625582
 H       -12.2004708275       11.7095310457       -0.0612537906
 H       -10.9226850190       11.6868866136        1.1420633353
 H       -12.6213029906       11.9108526982        1.4894145645
 Na      -11.5421357660        6.1567751542        2.2662646913
