117

 C       -14.3421063569        9.8062869826        1.2955769265
 C       -13.0428582536        9.1740473443        1.2031606347
 O       -13.1037179548        7.9562849171        1.2494340937
 C       -11.7835366535        9.9590163920        0.9999386112
 C       -10.9762056491        9.6285328483        2.2467468138
 O       -11.0249684137        8.5800082706        2.8204861478
 C        -9.9654956673       10.6425033066        2.9180802987
 C        -8.9079824041        9.8815902983        3.5937739513
 C        -7.8975425517        9.3076913710        2.5464151342
 O        -7.8793438714        9.8375544158        1.4563756769
 C        -6.9115277014        8.0198065373        2.7764318476
 C        -7.8070625838        6.7341453440        2.4714507306
 O        -8.9216000752        6.7372356802        1.8916204707
 C        -7.1610190661        5.4992824713        3.1170527526
 C        -7.9273664460        4.2042632762        3.0136392641
 C        -9.4950340470        4.3495823434        3.5010511908
 O        -9.8251263744        5.4033834295        3.8738538333
 C       -10.4796508160        3.1145465184        3.3032934452
 C       -10.7874762740        3.2806490645        1.6527683515
 O       -11.4438316486        4.2500911679        1.2541235936
 C       -10.0884980073        2.3379660069        0.7374964999
 C       -10.4795571585        2.3899108612       -0.7690822820
 C        -9.3816952219        2.2721981610       -1.8279740246
 O        -8.2408719332        1.9878154073       -1.4631690395
 C        -9.5752914184        2.5120569428       -3.4143817569
 C       -11.1653740048        2.6967765628       -3.7421408263
 O       -11.7727428358        3.7416692719       -3.6441286454
 C       -12.0384196661        1.4166793298       -4.1185820217
 C       -12.2832170739        0.1491280819       -3.2252529228
 C       -12.0698528312       -1.0521918523       -4.0733010970
 O       -11.9442473176       -0.9775428221       -5.3005652883
 C       -12.0207361962       -2.4541273717       -3.3782800748
 C       -10.5094876696       -2.7636173666       -3.0290623885
 O        -9.6488485390       -2.4425634174       -3.7926475809
 C       -10.1532637626       -3.7562588489       -1.7802592064
 C        -8.7832126226       -3.5293239529       -1.1715256120
 C        -8.7710392979       -2.1656353097       -0.4017628833
 O        -9.8529096155       -1.5703479995       -0.1674900253
 C        -7.4213865592       -1.5124161552        0.0964097637
 C        -6.4879912418       -2.7504509726        0.5127372321
 O        -6.9103817185       -3.7405936122        1.0797781868
 C        -5.1177370404       -3.0533229108       -0.2448368348
 C        -6.6723887371       -0.8600453828       -1.1042009196
 C        -7.4635704399       -0.5967264205        1.3318404367
 C       -12.8199212383       -2.4520835494       -2.0474118172
 C       -12.5042822359       -3.5739600665       -4.3172770777
 C        -8.7941461614        3.7562090353       -3.8444846020
 C        -9.0372334424        1.1253067991       -4.0265009533
 C        -9.9367063136        1.6804350468        3.6667672060
 C       -11.7499128656        3.4174900014        4.0090920353
 C        -5.6947377090        8.1062977379        1.8035196833
 C        -6.3151563562        8.1144424518        4.1888404596
 C       -11.0185798240        9.1013627500       -0.0626415229
 C       -11.8556079503       11.3155123287        0.5941983678
 H       -14.2873946859       10.6401643244        0.6618987543
 H       -14.5694740757       10.0603696085        2.3492952803
 H       -15.0116766182        9.1061633178        0.8923594693
 H       -10.7116041931       11.1803818671        3.6047851445
 H        -9.7669127506       11.4345641575        2.1492560287
 H        -9.4455592552        9.0981326348        4.2690076870
 H        -8.4554230982       10.5843465891        4.2691693537
 H        -6.9221664842        5.6853511516        4.1287791882
 H        -6.1981425551        5.1882453816        2.7292696422
 H        -7.3081128396        3.3744217276        3.3938040706
 H        -8.1528421532        3.9712190946        1.9917073177
 H       -10.1643324211        1.2667632295        1.1481724140
 H        -9.0629922264        2.5767383891        1.0499953135
 H       -10.9361787767        3.3484450781       -0.9603417086
 H       -11.1592813273        1.5806575602       -0.9523998046
 H       -11.6744905153        1.1392367753       -5.1228155810
 H       -13.0090086162        1.7639194239       -4.3479280423
 H       -13.2474839963        0.2856825907       -2.9055332369
 H       -11.5209478756        0.1602545275       -2.5160507277
 H       -10.1710416126       -4.8375326236       -2.1506229144
 H       -11.0382355877       -3.6096342179       -1.1601456093
 H        -7.9494142196       -3.4959863815       -1.9236373458
 H        -8.5432181714       -4.3979815101       -0.5540817706
 H        -4.4196572835       -2.2661452319       -0.0386485705
 H        -5.3189499791       -3.1958278309       -1.3524273953
 H        -4.7723517314       -4.0348328084        0.1360506198
 H        -6.5136521096       -1.6357255938       -1.8590963418
 H        -5.6735948468       -0.5751996174       -0.8206085882
 H        -7.1707316586        0.0288736368       -1.4341495693
 H        -7.9631636759        0.3767476602        1.1323257354
 H        -6.4064090258       -0.4026596631        1.6518279142
 H        -7.8912053900       -1.0749763798        2.2901681525
 H       -12.3494371696       -1.8243770988       -1.3367247872
 H       -12.7910994137       -3.3469694640       -1.5679095359
 H       -13.8639924782       -2.3614776832       -2.2829839210
 H       -12.1184296460       -4.5395253572       -3.9982801244
 H       -12.2426158150       -3.3151009300       -5.3920273786
 H       -13.6069982324       -3.6351075149       -4.1645826803
 H        -8.7460377619        4.5217807838       -3.0770478190
 H        -9.2389989757        4.3993671241       -4.6022821248
 H        -7.7662997264        3.6164291189       -4.0488277973
 H        -9.8963213170        0.4182540731       -4.0732859453
 H        -8.4396742605        0.7837174300       -3.1664474891
 H        -8.5666976361        1.3040474447       -4.9281956223
 H       -10.7238009766        1.0803371073        3.8499351425
 H        -9.4057520657        1.6792354793        4.5925333381
 H        -9.1560582257        1.2761751372        2.9889722310
 H       -11.4758454135        3.6950871228        5.0532850270
 H       -12.4020232396        2.5045477673        4.0368097723
 H       -12.3280056721        4.1415061008        3.4970400692
 H        -5.0812477539        9.0501332763        2.0677065934
 H        -5.9647276471        8.3526555204        0.7054696855
 H        -5.0223706728        7.2292811977        1.8240409632
 H        -7.0951465900        7.8481634533        4.9263174232
 H        -5.8834535660        9.0421441466        4.3649662745
 H        -5.5327724695        7.3116812287        4.3324600297
 H        -9.9526866034        9.3249128596       -0.0953009637
 H       -11.3283056369        9.5153943139       -1.0466932627
 H       -11.1741985279        8.0213297473        0.0033890931
 H       -12.3817733139       11.5806746478       -0.2890419480
 H       -10.7975555193       11.7222845820        0.5124268990
 H       -12.3530017259       11.8643904640        1.3319572187
 Na      -11.3012796001        6.4716887920        2.0170469135
