117

 C       -14.3103595261        9.8328031903        1.3673191504
 C       -12.9709825472        8.9824393329        1.0781574806
 O       -12.8716115522        7.7897648039        1.0361565179
 C       -11.6082994905        9.8128564474        0.9369228360
 C       -10.8555552661        9.5740378950        2.4205252357
 O       -11.1644949688        8.5626551998        3.0561157486
 C        -9.7654429543       10.7198469470        2.6660259299
 C        -8.6430816062       10.1152436304        3.4498226924
 C        -7.7740702694        9.3247617674        2.4097151907
 O        -7.6282618143        9.7060142001        1.2457796459
 C        -6.8961422522        8.1268560801        2.8259228816
 C        -7.6007778196        6.7612466438        2.3937545426
 O        -8.5489934920        6.8176218054        1.6377064706
 C        -7.0480627344        5.4809550187        2.8910444963
 C        -7.9517442745        4.2757398284        2.5566394447
 C        -9.3535993117        4.4891948615        3.2705548165
 O        -9.6301435866        5.6398169493        3.6603588970
 C       -10.4798744438        3.3803929763        3.0580762756
 C       -10.8494297940        3.5323969895        1.5642569181
 O       -11.4066164397        4.4396235744        1.0357963902
 C       -10.7628791708        2.1837201688        0.6203536039
 C       -10.6981218572        2.7658081156       -0.8155070435
 C        -9.5140568442        2.1500898143       -1.7682251976
 O        -8.4712339427        1.8782546307       -1.2808658593
 C        -9.7014630581        2.2647481763       -3.4406728568
 C       -11.1711634853        2.4565086306       -3.5415608473
 O       -11.6473685010        3.5400081247       -3.1176485316
 C       -12.1870960399        1.3659141207       -4.0049447983
 C       -12.4079366572        0.1163468430       -3.2041883836
 C       -12.0304848242       -1.1308974306       -3.9945369808
 O       -11.9339017893       -1.1388970054       -5.2250795123
 C       -11.9851106008       -2.5185021198       -3.2511589248
 C       -10.5372790324       -2.7756534707       -2.8368343906
 O        -9.6626018280       -2.1800182972       -3.4549666402
 C       -10.1763530466       -3.7549536231       -1.7197295942
 C        -8.7521459150       -3.4324551398       -1.2139198607
 C        -8.8015807927       -2.1604958154       -0.3321625539
 O        -9.9119038360       -1.6423285378       -0.0806454038
 C        -7.3496208389       -1.6587093106        0.2479247830
 C        -6.7797862241       -2.8884220219        0.8494379638
 O        -7.5284985946       -3.4880259170        1.6221559064
 C        -5.3387634199       -3.3926615052        0.6899666235
 C        -6.6955585723       -1.1569926606       -1.1084684970
 C        -7.3815510601       -0.5384637607        1.3348703859
 C       -13.1095042133       -2.5965490583       -2.1800852024
 C       -12.3444801643       -3.6386291837       -4.2630761383
 C        -8.8836858510        3.5758961113       -3.7570664491
 C        -9.1490439971        0.9730617841       -4.1250099412
 C       -10.0570862943        1.8547333242        3.2898589179
 C       -11.8246185596        3.7668189603        3.7546058961
 C        -5.5871355910        8.1070558236        1.9076628739
 C        -6.5817832790        8.1565043910        4.3259642808
 C       -10.7203164211        9.1437212934       -0.2113899871
 C       -11.7353705335       11.3573407661        0.5175122478
 H       -14.9545910595        9.5320374497        0.4840519234
 H       -14.0120345979       10.9624471104        1.2682164490
 H       -14.9080093432        9.5026973382        2.2010318812
 H       -10.2877776090       11.4457208595        3.1632938153
 H        -9.5665406395       11.1618794738        1.7469187086
 H        -8.9236822649        9.5475562296        4.3313408444
 H        -8.2765082064       11.1032442938        3.7964807679
 H        -6.9086788205        5.5794800078        3.9536979531
 H        -5.9465949623        5.3295915916        2.5877460449
 H        -7.8916307053        3.1565909044        2.7745746339
 H        -8.3087162483        4.2428624723        1.4833397386
 H       -11.7355493786        1.4907456493        0.8292924215
 H        -9.7692618504        1.6988669628        0.7940338116
 H       -10.2050777719        3.7514508737       -0.6958316103
 H       -11.7028780935        2.8996640865       -1.2245904546
 H       -11.9485644616        0.9348900968       -4.9781629939
 H       -13.1952875043        1.8134524788       -4.2097516893
 H       -13.5077222276        0.0382526504       -2.9687709045
 H       -11.5530210225        0.2162616618       -2.4316670872
 H       -10.2566979809       -4.6874026215       -2.3121935432
 H       -10.9436030272       -3.7880538558       -1.0069634250
 H        -7.9306503463       -3.4525900151       -1.9935943330
 H        -8.5937144998       -4.2449842356       -0.4186309638
 H        -4.8203038558       -2.5994429354        1.0352510235
 H        -5.0157980118       -3.7423662674       -0.2765997610
 H        -5.2383724500       -4.2325017781        1.4113993101
 H        -6.6105895799       -2.0807454463       -1.6706090556
 H        -5.5841604436       -0.8939148722       -1.0028695650
 H        -7.1889364485       -0.3284298691       -1.5915106790
 H        -7.8009815015        0.3147616335        0.9780892738
 H        -6.3634310045       -0.3079361588        1.7554825481
 H        -8.0012369814       -0.8259459083        2.1330154116
 H       -12.5875739682       -2.4023445307       -1.1367763074
 H       -13.4602019349       -3.6311658960       -1.9920629326
 H       -13.9647142146       -1.9601499251       -2.4528858461
 H       -12.6219318301       -4.4305427025       -3.6689737031
 H       -11.5486038382       -3.8082263706       -5.0155538478
 H       -13.1578850447       -3.2317543713       -4.9139372981
 H        -9.3785760851        4.5505349656       -3.7115693780
 H        -8.4561515188        3.6938925613       -4.8162712769
 H        -8.0418806791        3.7102340404       -3.1508111360
 H        -9.1382559626        0.2319322469       -3.3016908393
 H        -8.2333933010        1.1361903428       -4.6187455706
 H        -9.9948197658        0.6342934873       -4.6016358387
 H       -10.8238946229        1.2031480477        2.9603632902
 H        -9.7719062548        1.4407894581        4.3018902895
 H        -9.0775044131        1.7191479418        2.7622374055
 H       -11.7451290886        3.6922470477        4.8620695475
 H       -12.5077879454        3.1064095736        3.2515547037
 H       -12.1914916141        4.7425564617        3.4042061126
 H        -4.9662088196        8.9677748357        1.9050492810
 H        -5.9590389197        8.0512981748        0.8789831608
 H        -4.9418599317        7.3519101298        2.1953526375
 H        -7.5112614707        8.2341888036        4.8928255127
 H        -6.0379065673        9.0978080253        4.3783251863
 H        -5.7201626476        7.5265742318        4.6753037462
 H       -10.7642342733        9.5477751592       -1.2173103156
 H       -10.9089211234        8.0299039985       -0.3145347262
 H        -9.6795431396        9.1543507396        0.1364531174
 H       -12.0240077814       11.2615738195       -0.5419908466
 H       -10.8667450693       11.9917059844        0.3533208369
 H       -12.4965128755       12.0002658900        0.9186411047
 Na      -10.9114078513        6.5799160982        1.7344060626
