117

 C        -8.6061546838        9.7055893444       -2.1598710383
 C        -8.2701295916        9.9411555228       -0.7148442335
 O        -9.1321506014       10.0052555442        0.0887665215
 C        -6.7133224210       10.1309514921       -0.2292040023
 C        -5.5877126383        9.1033754902       -0.7673275519
 O        -5.2698031410        9.0451324314       -1.9449009733
 C        -4.9437143627        8.2293679019        0.2639834541
 C        -4.7403206515        6.8763435314       -0.4000477726
 C        -6.1772460888        6.2231387290       -0.5427153395
 O        -7.2561800635        6.7226692810       -0.2069767713
 C        -6.2844442049        4.8539030159       -1.3018754634
 C        -5.9846483012        3.8557281692       -0.1411429928
 O        -4.8734983339        3.7579651050        0.2860729609
 C        -6.9977228740        2.8632773998        0.3898855187
 C        -6.4585333212        2.1969820502        1.7388045595
 C        -7.3789447969        1.0426868127        2.0321099638
 O        -8.2135815365        0.6683133239        1.2183959272
 C        -7.3847907145        0.2819660606        3.4495182916
 C        -8.6616590516        0.9042707213        4.2900591898
 O        -8.4747980346        1.5104017090        5.3200034253
 C       -10.0284579421        0.4395899080        3.7673770817
 C       -11.1072245735        1.4229902994        4.1135258297
 C       -11.1506070071        2.5487277278        3.0705606144
 O       -10.1824721602        2.7197708196        2.3564719217
 C       -12.3778632337        3.4309312877        3.0008611287
 C       -13.1274213507        3.0115759710        1.6184121592
 O       -12.4485956904        2.8121602102        0.6464566556
 C       -14.6496499983        2.9640217760        1.4910634097
 C       -15.1402460627        2.7054904594        0.0705989899
 C       -14.6764979203        3.6962053815       -0.9021920445
 O       -13.9842974537        4.7246395831       -0.7502285314
 C       -14.8960149272        3.2694853083       -2.4911341222
 C       -13.5520493106        2.6357017886       -2.9811186626
 O       -13.5891587722        1.3569543660       -2.9597103231
 C       -12.2956094988        3.4531766269       -3.1884806755
 C       -11.1615425257        2.5861858566       -3.8201487151
 C       -10.4992526623        1.6956328938       -2.8197693398
 O        -9.9039360111        2.1599306523       -1.8528217729
 C       -10.6759780125        0.2264301363       -2.9523927114
 C       -12.0319507360       -0.1945385894       -2.1275354277
 O       -12.1117671242        0.2372229907       -0.9821117803
 C       -12.8923289942       -1.3948087359       -2.8589866459
 C       -10.7569919124       -0.1700528132       -4.4486274098
 C        -9.5592662272       -0.6392722139       -2.3001737089
 C       -16.0411857607        2.2477692222       -2.6528817030
 C       -15.1785287578        4.4954206751       -3.3735586920
 C       -13.2303711769        3.2736875018        4.2924497242
 C       -11.8632064117        4.9350725911        2.7086724096
 C        -7.6356457974       -1.2863714517        3.2644477224
 C        -6.1133128345        0.5617948476        4.2852554066
 C        -7.6697468085        4.8046797554       -1.9840085704
 C        -5.0958231604        4.5750133011       -2.2476073449
 C        -6.2351876073       11.6476583858       -0.5340473126
 C        -6.8853870233       10.0709784084        1.3201116517
 H        -9.5070984034        9.0670549951       -2.2962290474
 H        -7.8316698454        9.0136371503       -2.4044989928
 H        -8.4849334460       10.5877610952       -2.8192164618
 H        -5.5563205551        8.0551658197        1.1994747852
 H        -3.9411869021        8.7228134609        0.7022477145
 H        -4.1451816288        6.2134709668        0.1818873191
 H        -4.2954494811        7.0544450317       -1.4076707945
 H        -7.2848913420        2.1096728767       -0.2903955948
 H        -7.9599670390        3.2869619913        0.6259490822
 H        -6.4525441310        2.8751645565        2.5965838361
 H        -5.4877031132        1.8421134773        1.4370694617
 H       -10.1386363388       -0.4741282485        4.4252252430
 H        -9.9931822010        0.0131369195        2.7652739682
 H       -10.9645668309        1.8783614860        5.0956056759
 H       -12.1947386199        0.9824363713        4.1919730307
 H       -14.8090414079        3.9861765277        1.7435457272
 H       -14.9917023742        2.2674594112        2.2401295238
 H       -16.2564283313        2.5519670227       -0.0824595873
 H       -14.7038304289        1.7472331249       -0.3816949479
 H       -12.1088226181        3.9413714762       -2.2150999715
 H       -12.5732174720        4.2373492721       -3.8675703839
 H       -10.3715746106        3.4334793835       -4.0843951534
 H       -11.6414229035        2.2635663022       -4.7780794432
 H       -13.6186146190       -1.6385203054       -2.1882425891
 H       -12.1709114125       -2.2235380663       -2.9060735215
 H       -13.1523363660       -1.1275304077       -3.8616420401
 H       -10.1228650870        0.4229846702       -5.0140568728
 H       -11.8024239889        0.0573731463       -4.7799501004
 H       -10.4374047882       -1.2553352795       -4.6825098302
 H        -9.5595345421       -0.4529434817       -1.2952689203
 H        -8.4873752454       -0.3741205049       -2.7370699871
 H        -9.7585477264       -1.7110039762       -2.4279768864
 H       -15.6733496463        1.2288735178       -2.3111159418
 H       -16.5254173464        2.1766782445       -3.6389951212
 H       -16.9056024373        2.4113939058       -1.9711929781
 H       -14.4471848188        4.6928490107       -4.1825646859
 H       -15.0506610795        5.4086125099       -2.6800638951
 H       -16.1411622303        4.5684157067       -3.7476093799
 H       -12.6172506523        3.2642414912        5.1751204389
 H       -13.6696756285        2.3129477926        4.3927393465
 H       -13.9755850894        4.1168404594        4.3857516762
 H       -11.7025801892        5.3594843345        3.6546319339
 H       -12.6802660356        5.5537203081        2.3232715488
 H       -11.0217929719        4.9753517671        2.0810662267
 H        -7.7012122074       -1.7376129209        4.2791686376
 H        -6.7327203031       -1.7717937456        2.7098122788
 H        -8.4484158368       -1.6523686710        2.7495983577
 H        -5.2551376448        0.0307558014        3.8976373906
 H        -6.3348281248        0.0992147363        5.2530899505
 H        -5.9735419091        1.5422857251        4.5258454821
 H        -8.4370257825        5.2207506851       -1.2691285305
 H        -8.0006908751        3.8144252989       -2.1456248011
 H        -7.5540548779        5.5127738936       -2.8266101120
 H        -5.0498308327        5.1732145781       -3.1409149983
 H        -5.1428690391        3.6054242997       -2.6985951169
 H        -4.1489383302        4.7074040107       -1.6828743656
 H        -5.8106945898       11.9158309984        0.4099859796
 H        -7.0107583662       12.2910065110       -0.8535333800
 H        -5.6069729447       11.4756276575       -1.3868595645
 H        -7.2941717260        9.0944466069        1.5554503512
 H        -7.6082338104       10.8239379847        1.5963934312
 H        -5.9914634310       10.2660114353        1.9069777062
 Na      -10.4002789946        1.5549695590        0.2753561642
