117

 C       -14.0345384267        9.3481971918        1.0686808124
 C       -12.5347402342        8.7827935972        0.8060625058
 O       -12.4152396629        7.5986939984        0.9005965193
 C       -11.4682489225        9.9050239514        0.7869355917
 C       -10.5260668963        9.6820792073        2.1743184003
 O       -10.6402895287        8.7581590579        2.9131257866
 C        -9.4858098600       10.9270505745        2.5981092712
 C        -8.2864633827       10.3174056390        3.2522787005
 C        -7.5308126531        9.3760736085        2.2134337044
 O        -7.4715769867        9.6943840707        1.0524386957
 C        -6.6338612988        8.1564103442        2.7474248450
 C        -7.4305022468        6.8543595564        2.1246119208
 O        -8.3269320434        6.9438746264        1.2850405529
 C        -6.9949887622        5.6173438248        2.6962319954
 C        -8.1094087599        4.5232460430        2.3905627154
 C        -9.4658886946        4.7469482405        3.1046515331
 O        -9.6846358854        5.7659940819        3.7632057868
 C       -10.5436204537        3.6188302942        3.0581446730
 C       -10.9235919205        3.6008106479        1.5060306172
 O       -11.1157530189        4.6464924864        0.9779610321
 C       -10.8065160801        2.2261710958        0.6883889052
 C       -11.1454381126        2.5020911205       -0.7786646774
 C       -10.0015173120        2.0308307140       -1.7877801066
 O        -8.9680991592        1.5380430593       -1.3024946246
 C        -9.8745059389        2.2499965777       -3.3757364260
 C       -11.3289953843        2.3951051988       -3.9449901803
 O       -11.6558091166        3.5575781187       -4.0091075580
 C       -12.3727355333        1.2287692605       -4.4325284844
 C       -12.3495745852        0.0529729892       -3.4786651147
 C       -12.2115628559       -1.3006461558       -4.1665732222
 O       -12.0764455485       -1.3548178490       -5.3423161658
 C       -12.1093084703       -2.7053647425       -3.3288190334
 C       -10.7029757542       -2.6732050525       -2.6086788950
 O        -9.9092489745       -1.8285580838       -2.8166330745
 C       -10.3456789745       -3.8344151434       -1.5667008156
 C        -9.0405776429       -3.6710941115       -0.7468931653
 C        -8.9838192010       -2.3338853197       -0.0855438750
 O        -9.8849685528       -1.4754558265       -0.1329052769
 C        -7.4322689822       -1.9181991583        0.4773162579
 C        -7.0017117447       -2.8525662343        1.6119642281
 O        -7.8749903689       -3.3179032115        2.3215669494
 C        -5.5889589878       -3.3382516163        1.7142677349
 C        -6.3965354313       -2.0126246971       -0.6619899290
 C        -7.4942462113       -0.5353830581        1.0810679582
 C       -13.2222055265       -2.6993203793       -2.3904886224
 C       -12.1792521577       -3.8803194996       -4.2587798229
 C        -9.0261925038        3.4538572765       -3.5979031843
 C        -9.2314557978        0.9194474102       -4.1661320534
 C       -10.1816372219        2.1802515668        3.4943766790
 C       -11.9173164115        3.9899237738        3.7313486257
 C        -5.1816399936        8.3119191547        2.1597445045
 C        -6.5725071478        8.0975789779        4.3158843820
 C       -10.5801599190        9.4283076015       -0.3464485968
 C       -12.0094334693       11.2924733621        0.5831262804
 H       -14.5113026826        8.8839520238        1.9477433477
 H       -14.4654763459        9.1649711955        0.0653683101
 H       -14.1152589903       10.4687294774        1.2776643510
 H       -10.0939603043       11.4157839035        3.3493019140
 H        -9.4124771709       11.5731802620        1.7686198028
 H        -8.7180496801        9.7516551761        4.1101770490
 H        -7.4706969047       10.9175565003        3.5427226584
 H        -6.6941834531        5.6568073323        3.7117199127
 H        -6.0508888160        5.1784540318        2.2182505388
 H        -7.9823087241        3.4584654165        2.7242044826
 H        -8.4178742717        4.3724179543        1.3275323033
 H       -11.6449895951        1.5390088126        1.1173551860
 H        -9.8157778268        1.9299265671        0.7727494797
 H       -11.5986165214        3.4768406240       -1.0634922418
 H       -11.9141524196        1.7247054728       -0.9450806272
 H       -12.1072072368        0.9594499225       -5.4958589414
 H       -13.4628654274        1.4271131287       -4.4114921590
 H       -13.2186042140        0.1499469291       -2.7163431625
 H       -11.3648488849        0.0283792306       -2.8017666168
 H       -10.2592785447       -4.6815099649       -2.1881996434
 H       -11.2451070516       -3.9778167071       -1.0672454202
 H        -8.2027801177       -3.6800845470       -1.4372980788
 H        -8.9270401733       -4.3643812511        0.0771285816
 H        -4.8938108492       -2.5362618879        1.8286066121
 H        -5.2844595178       -4.1057563342        0.9707064966
 H        -5.6956965721       -3.8580250930        2.6235900114
 H        -6.4939101635       -2.9447750129       -1.2422323203
 H        -5.3579465125       -1.8531743973       -0.2956792220
 H        -6.5694589618       -1.2687585160       -1.4194053908
 H        -7.6112393476        0.2570303835        0.3694666410
 H        -6.5445896985       -0.2836171151        1.5189665829
 H        -8.3945615431       -0.4153541147        1.6815133294
 H       -12.9651692378       -1.8768425844       -1.6760851406
 H       -13.4624250978       -3.6792276862       -1.9694760146
 H       -14.2195885220       -2.1889720976       -2.7414184535
 H       -11.5847491027       -4.6417121685       -3.8790150418
 H       -11.8371787021       -3.5080110691       -5.2282389184
 H       -13.2132697411       -4.0914699150       -4.4135123082
 H        -9.2328968393        4.3313243625       -2.9416557366
 H        -8.9734024399        3.8382549419       -4.6020773166
 H        -7.9605618169        3.3556828333       -3.4513340155
 H        -8.9403439835        0.0352471050       -3.5325436749
 H        -8.5107539908        1.4420682362       -4.8561466173
 H        -9.9243284597        0.4723837704       -4.8543939949
 H       -10.9431140892        1.4466255009        3.6228582483
 H        -9.5101636850        2.1799569057        4.4185688081
 H        -9.5661044143        1.5878223851        2.6859620630
 H       -11.5975784515        4.2419909469        4.7234934730
 H       -12.5352888002        3.0859915040        3.8027624759
 H       -12.3681149561        4.8242643186        3.2841219548
 H        -4.3961098019        8.7745702567        2.7264463253
 H        -5.2038339713        8.7037983613        1.1643995229
 H        -4.8587121005        7.3381133454        2.0938592026
 H        -7.6110431860        7.9090781837        4.6419712794
 H        -6.2866534644        9.0485883819        4.6447536617
 H        -5.8108778474        7.3439707573        4.6654189516
 H       -10.1697017477        8.4390679345       -0.2185653293
 H        -9.7307057642       10.1107529701       -0.4083327773
 H       -11.0501860897        9.3731566926       -1.3180553048
 H       -12.7905695758       11.1437939172       -0.1980920595
 H       -11.4219927830       12.1764486979        0.0192658864
 H       -12.4632818383       11.7720070665        1.4554735132
 Na      -10.6640029018        6.8196148755        1.9570174779
