117

 C       -14.1089783523        9.1146678167        1.0073484989
 C       -12.5318206920        8.8939223777        0.9929507497
 O       -12.1972540879        7.7188465215        0.8417996505
 C       -11.4077969151        9.9440662536        0.8033036728
 C       -10.5815917405        9.8336584331        2.0501477777
 O       -10.6441881157        8.8913614541        2.8025385331
 C        -9.5685488536       10.9242568102        2.3971111912
 C        -8.2085704908       10.4873380538        3.1551132917
 C        -7.3807499134        9.6543872132        2.1779059795
 O        -7.4144342756        9.8022469343        0.9983928824
 C        -6.7723162407        8.2558919115        2.7214480339
 C        -7.4748539143        6.9173770547        2.2429784080
 O        -8.3026027983        7.0001089994        1.3274030741
 C        -6.9947680234        5.5186045679        2.7070854607
 C        -8.0334922956        4.4650469827        2.4121513445
 C        -9.3411612830        4.6695539016        3.2882834439
 O        -9.6122781679        5.7340393945        3.6829235124
 C       -10.4748756648        3.5518247803        3.0251229898
 C       -10.8028926613        3.6277710552        1.3792508608
 O       -11.1070761044        4.7707272444        0.9614391500
 C       -10.9705282854        2.3510154073        0.5578851177
 C       -11.1914068817        2.2960782449       -0.9925398442
 C        -9.9526835663        1.8680000445       -1.8487486144
 O        -8.8864894945        1.4697936523       -1.3161182568
 C        -9.9455972714        2.2384581680       -3.4261181846
 C       -11.5189212590        2.5604882913       -4.1206951443
 O       -11.9185123303        3.6469716443       -4.3340858137
 C       -12.2879318201        1.2882166097       -4.3997382116
 C       -12.5127869382        0.0012431744       -3.4653281214
 C       -12.2498588518       -1.3862858121       -4.2558328896
 O       -12.1602634157       -1.4422757967       -5.4594131097
 C       -12.1616931276       -2.7032388493       -3.3045020089
 C       -10.7309118491       -2.7047369806       -2.4644045878
 O        -9.9345182712       -1.8489095222       -2.7846927209
 C       -10.4796318483       -3.9066467574       -1.4895669441
 C        -9.0477793886       -3.8369760793       -0.6570978916
 C        -8.8576102711       -2.3414873885       -0.0993764527
 O        -9.8153577957       -1.6750244150       -0.0065516746
 C        -7.4604646429       -1.9207151202        0.4631228720
 C        -7.2183141712       -2.9939195472        1.8130546501
 O        -8.1287155541       -3.2745975629        2.5456693519
 C        -5.7035445621       -3.3123142120        1.9930884364
 C        -6.4960700964       -2.0049350182       -0.6645429487
 C        -7.2977478911       -0.4556488071        1.0894066219
 C       -13.3779361243       -2.6594699074       -2.2945260468
 C       -11.9682918641       -4.0303697508       -4.2745621300
 C        -9.0236736225        3.4091785492       -3.3043837746
 C        -9.2329292625        1.0712071410       -4.0738411268
 C       -10.1675996197        2.1684018586        3.6012928957
 C       -11.8691622299        4.1596449240        3.6463128936
 C        -5.3604125732        8.1963207956        2.1312472116
 C        -6.5296183090        8.0797866054        4.2657691775
 C       -10.4016853646        9.3860757002       -0.4783558393
 C       -11.7990795260       11.3863337249        0.7756790304
 H       -14.5238211162        8.7167058737        1.9804619892
 H       -14.3849369544        8.6904213967        0.0673659449
 H       -14.3558979290       10.2460613907        1.0462507882
 H       -10.0454543546       11.7204532984        2.9532389510
 H        -9.4141653455       11.2638093633        1.3841833926
 H        -8.4007066909        9.8234648572        4.0820699400
 H        -7.5890094401       11.3044258527        3.4259273956
 H        -6.6544468499        5.4165783978        3.7640205114
 H        -6.1402046597        5.0789236591        2.1786587534
 H        -7.7667070009        3.4086347902        2.4855547099
 H        -8.5156266105        4.4920168907        1.3643809705
 H       -11.8267366532        1.7873986839        1.0247850108
 H        -9.8906795639        1.9763227203        0.7932870512
 H       -11.3788925879        3.2711439581       -1.5075449243
 H       -12.0867298546        1.7059623353       -1.0834919499
 H       -11.7066581010        0.9415532855       -5.3229057087
 H       -13.2789761063        1.3575333532       -4.6920136471
 H       -13.5849289636        0.0011813280       -3.0481792278
 H       -11.8232743153       -0.0191623597       -2.5579098148
 H       -10.6479388318       -4.8183649432       -2.0387658425
 H       -11.5087672709       -3.7540927629       -0.9580472176
 H        -8.1914066706       -4.2198976342       -1.3133813167
 H        -9.1279564033       -4.3421460022        0.3277706302
 H        -5.1559295555       -2.3579550289        1.8255948319
 H        -5.3460233456       -4.1042370715        1.4128512521
 H        -5.6041354966       -3.5287638005        3.0040565779
 H        -6.4503687687       -3.0264701580       -1.1412935433
 H        -5.5602068348       -1.6814292547       -0.3082856485
 H        -6.7803221520       -1.3964236173       -1.5770125827
 H        -6.8472031715        0.2119781378        0.3616904708
 H        -6.6108321720       -0.4164437261        1.8067514846
 H        -8.2119672895        0.0461601750        1.2835400989
 H       -13.2776952348       -1.9921717363       -1.4754181396
 H       -13.6362727012       -3.7281131346       -2.0797865306
 H       -14.3459805215       -2.1578372996       -2.7207475839
 H       -11.4921658229       -4.8855463895       -3.6804714010
 H       -11.3286150356       -3.7371305671       -5.0919549648
 H       -12.9291187095       -4.2125329184       -4.6440885411
 H        -9.4906728063        4.2621513742       -2.7731605951
 H        -8.6119074268        3.7970248857       -4.1676469974
 H        -8.0261979140        3.3330256889       -2.7762897572
 H        -8.9168785645        0.4097237742       -3.3520154293
 H        -8.4654278695        1.5367640740       -4.6237397312
 H        -9.7331600674        0.4110104206       -4.8183608311
 H       -10.9879991350        1.3972184942        3.6151779726
 H        -9.9357615521        2.4824600628        4.6092844245
 H        -9.4101676837        1.4436746618        3.2546017458
 H       -11.6148945561        4.2863871492        4.6938806350
 H       -12.6843707582        3.3899494680        3.5882115158
 H       -12.0209172436        5.1254751806        3.2233064791
 H        -4.6856380422        8.5655660787        2.8886955198
 H        -5.1705209326        8.6346753304        1.2201828941
 H        -5.0716977715        7.1320505406        2.0412582740
 H        -7.5741386858        7.9583689576        4.7049860760
 H        -6.0530333283        8.9811337176        4.6846514145
 H        -5.9361081482        7.1377642253        4.3748225005
 H        -9.3954026030        8.9911114232       -0.3354245844
 H       -10.2955205336       10.2863717162       -1.0374265910
 H       -10.8968495710        8.6578407412       -1.1482128304
 H       -12.4327956115       11.4677972009       -0.1065174369
 H       -11.1053379698       12.2009454955        0.6207504569
 H       -12.3998982364       11.6822000231        1.6369105296
 Na      -10.4860988761        6.6639820822        1.9039304441
