117

 C       -13.9862012473        9.0456184441        0.9348130291
 C       -12.5103147009        8.8995099899        0.7607311120
 O       -12.1205540906        7.6930817506        0.8726878099
 C       -11.4498465452       10.0187108621        0.7155869314
 C       -10.3497639312        9.8117591019        2.0862753467
 O       -10.5357777108        8.9090309027        2.8954079409
 C        -9.4278483438       11.1024615275        2.2225607580
 C        -8.2895803814       10.5733810977        3.0651031084
 C        -7.5038199817        9.5268919391        2.1619164414
 O        -7.2564288400        9.9114902871        1.0433397021
 C        -6.7071861824        8.1753027942        2.7374164741
 C        -7.4866027721        6.9972942863        2.2326790663
 O        -8.3279573039        7.1227616368        1.3458906711
 C        -7.0709013190        5.5647031226        2.7175973664
 C        -7.8935171471        4.3166214121        2.4485089478
 C        -9.3888852414        4.5844118099        3.0746306469
 O        -9.4682884552        5.5337904590        3.8216254920
 C       -10.5418713388        3.6212282466        2.9344048309
 C       -10.7826659179        3.5870095768        1.2891929376
 O       -11.0382615554        4.6799158807        0.7738517094
 C       -10.9668047318        2.2694611904        0.5395408642
 C       -11.2289356421        2.3360654095       -1.0081630224
 C        -9.9919969556        1.9016757799       -1.8152432161
 O        -9.0705633837        1.3813016901       -1.3123484872
 C       -10.0598628100        2.2210648015       -3.2747695427
 C       -11.4558574413        2.4739255750       -3.9678553952
 O       -11.9128343350        3.4602478351       -4.4869079144
 C       -12.2401049515        1.2038956150       -4.5680404867
 C       -12.5301079825       -0.0546254409       -3.6061270001
 C       -12.1815924354       -1.4283482870       -4.1875970196
 O       -12.2423669589       -1.5109570649       -5.4234454010
 C       -12.0868707852       -2.6984087018       -3.2778125869
 C       -10.7731110569       -2.7203052546       -2.4145630545
 O        -9.8818997947       -1.9197672017       -2.6824365384
 C       -10.5570861786       -3.7831302660       -1.3275204468
 C        -9.2163622783       -3.7350545875       -0.7050191253
 C        -8.9539947149       -2.4023055589        0.0507159063
 O        -9.8547384299       -1.6277927847        0.2049524235
 C        -7.4395283676       -2.1092521104        0.5125185104
 C        -7.3056662232       -2.8426702706        1.8657612560
 O        -8.2402244485       -3.2107545322        2.5769827224
 C        -5.9215965338       -3.2444431852        2.3091075582
 C        -6.4268177004       -2.2135679515       -0.6421931807
 C        -7.3843159937       -0.6086975483        1.0493184364
 C       -13.3469182870       -2.8308826242       -2.3471486719
 C       -11.9961788701       -3.9484111097       -4.1789469903
 C        -9.1741997033        3.5920099760       -3.2004578056
 C        -9.2419028689        1.1934061151       -4.1335926876
 C       -10.1849710711        2.3140211752        3.5886375307
 C       -11.7228723836        4.2359298780        3.6047743784
 C        -5.2760464044        8.0831937987        1.9766249517
 C        -6.6284059767        8.2333501549        4.3361955670
 C       -10.4700166208        9.6359373585       -0.3700095927
 C       -11.7889789668       11.4936508780        0.6631626066
 H       -13.9745213258        8.7857051802        1.9936229343
 H       -14.5768906719        8.4612321350        0.2047070085
 H       -14.2344297363       10.0296997580        0.9990118709
 H        -9.8678216518       12.0342156708        2.7450722816
 H        -9.1318682819       11.4196890812        1.1232910227
 H        -8.5685930167       10.2052616898        4.0319177175
 H        -7.4733345321       11.3965669564        3.1464009027
 H        -6.7685667588        5.5550380979        3.8092021395
 H        -6.2047110576        5.1963248065        2.2474252335
 H        -7.4459069118        3.3809803822        2.7623914914
 H        -8.1007903628        4.1705772346        1.3876683280
 H       -11.9021860777        1.9407027950        0.9134550315
 H       -10.0111276472        1.6253010009        0.8293083300
 H       -11.4264839129        3.3274104970       -1.3947256449
 H       -12.1951086519        1.8248524345       -1.1281069598
 H       -11.7624112699        0.9011368058       -5.4798872620
 H       -13.2716115656        1.4833541919       -4.7676766517
 H       -13.5346403950       -0.1970746256       -3.2446384944
 H       -11.9884033152        0.1325456278       -2.7485040372
 H       -10.6655940529       -4.8428319608       -1.7962756718
 H       -11.4939153649       -3.6727841093       -0.6800764218
 H        -8.3960220554       -3.9204331904       -1.4603244006
 H        -9.2850049833       -4.5377250268        0.0996542934
 H        -5.1674617426       -2.5841398122        1.9536517058
 H        -5.8802989667       -4.1523645956        1.7736865424
 H        -5.7569243212       -3.4658028161        3.4405075769
 H        -6.2038809826       -3.2009325004       -1.0269707695
 H        -5.5229196306       -1.6769551820       -0.3539987452
 H        -6.8708442102       -1.7739424391       -1.5629713133
 H        -6.7254660959       -0.0444466297        0.4415128336
 H        -6.8615181663       -0.4101785224        2.0526427933
 H        -8.2678198067       -0.0863233590        0.9437727831
 H       -13.5141820403       -2.1236127505       -1.5569722354
 H       -13.5116214824       -3.8946142745       -2.1492368032
 H       -14.1349376250       -2.5790952261       -2.8977665788
 H       -12.0557757456       -4.8146932852       -3.4729738086
 H       -11.0098577631       -3.9720013871       -4.6961187502
 H       -12.9182270782       -3.8369266000       -4.8241640567
 H        -9.5711150882        4.4809506436       -2.8153458999
 H        -8.7626453248        3.8493513350       -4.2163805712
 H        -8.2307469036        3.5607272564       -2.7101150641
 H        -8.6523328436        0.5738562273       -3.3969362903
 H        -8.6094753340        1.6790976719       -4.7989446691
 H        -9.7620922647        0.4521428718       -4.7202754766
 H       -10.7786766763        1.4462922612        3.2191612412
 H       -10.3115781222        2.4918595778        4.6203802253
 H        -9.2889007928        1.8809962857        3.4529029544
 H       -11.5897918940        4.1281818151        4.6962217117
 H       -12.5251764253        3.5819905177        3.3449274642
 H       -11.7792232268        5.3500756820        3.2866963263
 H        -4.6803815389        8.8173472393        2.4819151342
 H        -5.4111088800        8.4252360670        0.8961217124
 H        -4.6949159044        7.0911535139        1.8863745480
 H        -7.6340719345        8.1886605851        4.7575049824
 H        -6.1568475601        9.2619305479        4.6367321314
 H        -6.0702089133        7.3369910338        4.5952172139
 H        -9.4366839766       10.0296530054       -0.3742000953
 H       -10.9001705103        9.9442138742       -1.3455068080
 H       -10.3319066004        8.5484283792       -0.3905757605
 H       -12.2778772806       11.8991424838       -0.2201789814
 H       -10.9577406443       12.0317658937        0.8028681209
 H       -12.3414874220       11.7984571499        1.5390082757
 Na      -10.3694641323        6.6497971151        1.7866526901
