117

 C       -13.9484982829        9.2054172139        0.8872170912
 C       -12.4266176584        8.8470260276        0.9022932577
 O       -12.0501777225        7.7082276923        0.7789380920
 C       -11.2989054769       10.0124026281        0.7798901808
 C       -10.4435611666        9.9904161119        2.1184119773
 O       -10.3283712468        9.0236031462        2.8036840483
 C        -9.3700024492       10.9945822445        2.2167056946
 C        -8.1815132856       10.4776472748        3.0865802685
 C        -7.2557409887        9.5596110337        2.2054742122
 O        -7.1046669309        9.8275467523        1.0225355716
 C        -6.6536970849        8.2785331561        2.7361147041
 C        -7.4929903184        6.9880601344        2.1731486833
 O        -8.3320871683        7.1457651437        1.3434194007
 C        -6.9900571286        5.6192926177        2.6870091820
 C        -7.8159593801        4.3669099809        2.4473482772
 C        -9.2719208840        4.5725840107        3.0284721693
 O        -9.3198920258        5.4132955473        3.9628838446
 C       -10.5779229025        3.6438321719        2.8058232869
 C       -10.9041687845        3.5594679632        1.2558339774
 O       -10.8714051084        4.5245425245        0.5740888427
 C       -11.0520920750        2.1075067890        0.6511571267
 C       -11.3381291895        2.4754445490       -0.8179024652
 C       -10.1372081961        1.8985415155       -1.7323990224
 O        -9.2859629935        1.2292189082       -1.2230903603
 C       -10.0425271554        2.2197821728       -3.3372551692
 C       -11.3339657881        2.2651544680       -4.1472474927
 O       -11.7323958506        3.4070552900       -4.3655234815
 C       -12.2430301648        1.0341620951       -4.6169190942
 C       -12.4336794713        0.0039851785       -3.4959644336
 C       -12.2830689476       -1.4440327703       -4.2089812070
 O       -12.2115257361       -1.6624721697       -5.3864106430
 C       -12.1047620588       -2.7510102684       -3.3118274857
 C       -10.7637438580       -2.6184524803       -2.4003955522
 O        -9.7934522581       -1.9499172004       -2.6049100277
 C       -10.6835699506       -3.6957584777       -1.1660538955
 C        -9.3017242903       -3.6661863724       -0.7102295922
 C        -9.0438132586       -2.3753461043        0.1378950093
 O        -9.9231987940       -1.5370950719        0.4764457481
 C        -7.5087304427       -2.0983242926        0.5682647512
 C        -7.3699179750       -2.9582892141        1.8543140529
 O        -8.3772094928       -3.0671398492        2.5046434280
 C        -5.9253373120       -3.2797094325        2.5891769314
 C        -6.4746350444       -2.5598901434       -0.4155862643
 C        -7.5460873945       -0.6259060790        0.9668520081
 C       -13.3003869817       -2.9432215416       -2.3943551763
 C       -12.0317054268       -3.9429915703       -4.2069253366
 C        -9.5219905312        3.7566988142       -3.3574147687
 C        -9.1473966716        1.3304011917       -4.1749600190
 C       -10.1880328921        2.2646937770        3.4234839050
 C       -11.7694826370        4.3228894977        3.4888316758
 C        -5.3403024507        8.1427783912        2.0285856855
 C        -6.6356913630        8.3810823349        4.2299792970
 C       -10.4145450499        9.8292292196       -0.4979296589
 C       -12.0247166024       11.4416746175        0.4937242755
 H       -14.2508224075        9.2150609706        1.8584647465
 H       -14.3627719808        8.4759537147        0.2145609607
 H       -14.1067189552       10.1916938747        0.5217155137
 H        -9.5525605355       11.9239840763        2.8878163579
 H        -9.0201188346       11.4656727037        1.2279628557
 H        -8.4459706229        9.9511196858        3.9670410532
 H        -7.6970309807       11.4629856069        3.3420557924
 H        -7.0324447462        5.7175552473        3.7531834960
 H        -5.9651390284        5.2840653273        2.4841503983
 H        -7.4365261204        3.5151532051        3.0006935345
 H        -7.9809480924        4.0322016796        1.4716692814
 H       -11.8544148117        1.4790034940        1.0227233234
 H       -10.0756467616        1.6959798210        0.6801687966
 H       -11.5565671216        3.5129873554       -1.0648776381
 H       -12.3170934358        2.0080268076       -1.0672257028
 H       -11.8499460724        0.4291276045       -5.3740730970
 H       -13.2902632064        1.3149334665       -4.8875440771
 H       -13.3138012727       -0.1149368406       -2.9895250019
 H       -11.7811885620        0.1892253704       -2.6793094473
 H       -10.9429633020       -4.7447935954       -1.5260469367
 H       -11.3925903002       -3.4711622117       -0.4389559257
 H        -8.6484156441       -3.4628119013       -1.5537306782
 H        -9.0734363247       -4.6138265694       -0.2118748466
 H        -5.2567183769       -2.5634453896        2.1470896301
 H        -5.5370306591       -4.3368905039        2.3659850462
 H        -5.9216224903       -3.1091549415        3.6826363672
 H        -6.4828673955       -3.6151227085       -0.4834596569
 H        -5.4348118428       -2.1997834856       -0.1560511486
 H        -6.7033949750       -2.3341711516       -1.4097350852
 H        -6.7788860606       -0.0473471285        0.4485716253
 H        -7.2193797966       -0.4262004496        2.0590437009
 H        -8.4732830787       -0.0555682578        0.7623260784
 H       -13.5340543707       -2.0491736345       -1.8641823315
 H       -13.3559032343       -3.8151438529       -1.8682671505
 H       -14.1558807169       -2.9324562533       -3.0514212090
 H       -12.4306498827       -4.7710144918       -3.6771954106
 H       -10.9407494587       -4.1460864260       -4.4248137623
 H       -12.7144026812       -3.6520965429       -5.0820380701
 H       -10.0237311444        4.5259575807       -2.8178792097
 H        -9.2562021495        4.1891967497       -4.3469987395
 H        -8.5659298301        3.8464443726       -2.9503562009
 H        -8.2201024765        0.9204578814       -3.5889870120
 H        -8.9347374343        1.5908520187       -5.2578752686
 H        -9.6567027244        0.3822228116       -4.2516088682
 H       -10.6056418326        1.4813680275        2.9631619765
 H       -10.3611675401        2.2623891922        4.4706258453
 H        -9.1664335016        1.9261908350        3.2828300508
 H       -11.6315659363        4.2268646999        4.5839059751
 H       -12.5574674753        3.6185130914        3.2556822667
 H       -11.8838408734        5.3737403585        3.1492907762
 H        -4.7607769290        9.1359842682        2.0610503739
 H        -5.6460425227        7.9603951624        0.9140119073
 H        -4.6862165384        7.2862874148        2.2569150991
 H        -7.6081198900        8.3142032830        4.6771439929
 H        -6.2516305936        9.3649256751        4.4149248534
 H        -6.0292918176        7.5527413049        4.5833953643
 H       -10.1048359634       10.7766971615       -0.9685748182
 H       -10.9253764640        9.2266711878       -1.2967226211
 H        -9.4688092207        9.3698297166       -0.2615634749
 H       -12.6707655241       11.4532320349       -0.3641914502
 H       -11.2255007699       12.2709322293        0.4623283479
 H       -12.5504374872       11.7893346827        1.3309037589
 Na      -10.3621740341        6.7180798480        1.6724456488
