117

 C       -13.9282630903        9.3308444109        0.8691160085
 C       -12.4777873527        8.9619725809        0.6542462417
 O       -12.0595603392        7.7930818658        0.6345746351
 C       -11.3612734581       10.1821608492        0.4904693173
 C       -10.3993431652       10.0417158385        1.9062948818
 O       -10.2617783182        8.9746709345        2.5268326563
 C        -9.4037804317       11.1039578230        2.2741183467
 C        -8.0459904906       10.5064743128        2.8727306245
 C        -7.1309808043        9.6068237033        2.0631936045
 O        -7.0842998961        9.9287592707        0.9166700694
 C        -6.4159728663        8.3141367746        2.6621927142
 C        -7.1997172802        7.0019149510        2.1731410050
 O        -8.1384238369        7.1380717316        1.3898427553
 C        -6.8875619226        5.6513654850        2.7922937988
 C        -7.9609228401        4.5754736782        2.2562933740
 C        -9.3086398213        4.6296566867        3.1873333369
 O        -9.4182136567        5.3854878261        4.0716859122
 C       -10.3674566950        3.5295989716        2.7030649849
 C       -10.6491200598        3.6098352232        1.1161969812
 O       -10.4836433848        4.7303229732        0.5544575839
 C       -11.2629092240        2.4179696060        0.4410059546
 C       -11.4907461747        2.3019445680       -1.0476522433
 C       -10.2842414498        1.8359283102       -1.8267273949
 O        -9.5222018329        0.9836842265       -1.3939724820
 C       -10.1495340933        2.3163521612       -3.2615564969
 C       -11.5793258848        2.2125454095       -4.1958689736
 O       -12.1574890003        3.2148326465       -4.4068461564
 C       -12.0341667396        0.8647927145       -4.5259330498
 C       -12.0844830481       -0.1545016494       -3.4012529580
 C       -12.1669501171       -1.5713358811       -4.2069916879
 O       -12.2421288704       -1.5890639806       -5.4433182293
 C       -12.1389072175       -2.8091278781       -3.3038208304
 C       -10.9170099149       -2.7321148919       -2.3537852083
 O       -10.1016817815       -1.9312865485       -2.8328911140
 C       -10.8543485307       -3.5533131699       -1.0511640962
 C        -9.3944185231       -3.6958738937       -0.4997196766
 C        -9.1125855625       -2.3693601564        0.3501705246
 O        -9.9508219056       -1.6596205220        0.7522516969
 C        -7.6854370656       -2.1204625136        0.8379658996
 C        -7.6395717572       -2.8360797153        2.2947107458
 O        -8.6815448476       -3.2043430499        2.8468160161
 C        -6.2190808349       -3.1179403840        2.7545352452
 C        -6.6385123373       -2.8277978533       -0.0732796065
 C        -7.0985595792       -0.5933692937        0.7666619480
 C       -13.4562240049       -2.8796900097       -2.5157251871
 C       -11.9077090083       -4.0883851630       -4.1504607147
 C        -9.5875998271        3.7792313515       -3.2513418787
 C        -8.9238224129        1.4469487854       -3.8483543994
 C       -10.2004163320        2.1520625627        3.3907413971
 C       -11.6445187882        4.1136084197        3.2767111658
 C        -4.9896227588        8.1748823921        2.1709197315
 C        -6.3899585466        8.2652364013        4.2280880609
 C       -10.3563908640        9.8649409809       -0.6151968085
 C       -11.9955467933       11.6172731408        0.6188094411
 H       -14.0900612501       10.1759879912        1.6528671613
 H       -14.4169552370        8.3246606765        1.0869836250
 H       -14.2145648372        9.6357918121       -0.1392176282
 H        -9.7652601957       11.7749035406        2.9770617781
 H        -9.0336709272       11.6509579446        1.4391324423
 H        -8.0327795988        9.9692466021        3.8267874897
 H        -7.4576599125       11.3906093939        3.0917406475
 H        -6.7505975109        5.6347322731        3.9098598895
 H        -5.9568067671        5.3008707941        2.3554213174
 H        -7.7110097921        3.4941136755        2.3024782012
 H        -8.2768510302        4.8469293428        1.1751289201
 H       -12.2289311610        2.4765116748        0.9257787469
 H       -10.6153265951        1.5199800423        0.7677904980
 H       -11.9058023249        3.2634232895       -1.4187248523
 H       -12.3029071772        1.6466802584       -1.3416588766
 H       -11.3879400411        0.3114403821       -5.2830793581
 H       -13.0398723613        0.9172860595       -4.8602247588
 H       -12.7567284548       -0.0013605365       -2.4242821466
 H       -11.1060436332       -0.1291110958       -2.8196687664
 H       -11.3665809123       -4.4329812781       -1.3380905500
 H       -11.4620938359       -3.0184704153       -0.2790766482
 H        -8.5452501310       -3.8292071931       -1.1739415977
 H        -9.3859671237       -4.4906776206        0.2287109464
 H        -5.4783985898       -2.3867995661        2.4004538569
 H        -5.9085068207       -4.0713801653        2.4503182556
 H        -6.2252364253       -3.0526842675        3.8714454273
 H        -6.6666307191       -3.9451309726       -0.1342404416
 H        -5.7105017429       -2.6355212039        0.3529839324
 H        -6.5824536758       -2.5543206112       -1.1569353942
 H        -6.1014865939       -0.5027998931        0.2841981696
 H        -7.0039158053       -0.1269037480        1.7377692333
 H        -7.7510216169        0.1124577079        0.2775000702
 H       -13.7844086734       -1.9503784005       -1.9433366118
 H       -13.1296595736       -3.6882812138       -1.7017323577
 H       -14.3781933235       -3.2605736163       -2.9358062688
 H       -12.0902154139       -4.9592586221       -3.5004527706
 H       -10.8992863963       -4.0781297616       -4.3154559204
 H       -12.5901581888       -4.1055197623       -4.9345778132
 H       -10.1787375536        4.4975180310       -2.6796223254
 H        -9.3311073472        4.3798330735       -4.1223292034
 H        -8.6766673115        3.8782383003       -2.6065426936
 H        -8.0353949268        2.0306072214       -4.1203278646
 H        -9.2019381924        0.9824873926       -4.7721953977
 H        -8.5100873988        0.6315963577       -3.1689808547
 H       -11.2719033668        1.6005866537        3.4316993154
 H        -9.7057215096        2.1350851290        4.3944802808
 H        -9.7228205758        1.3826177241        2.7932840690
 H       -11.4567915845        4.5472316413        4.2184687593
 H       -12.3931370869        3.3635792712        3.3527401531
 H       -11.8238563099        4.8832973048        2.5555809350
 H        -4.6131088052        9.1204936988        2.1423650630
 H        -4.8305514041        7.6425808368        1.2896808714
 H        -4.4048466244        7.5677570743        2.8750281180
 H        -7.3668823158        8.2087235455        4.6626787291
 H        -6.0631840395        9.3106406818        4.4731585606
 H        -5.8082725500        7.4841016777        4.6302302347
 H       -10.6155697157        9.4420227509       -1.5725628691
 H        -9.6288038692        9.2074775122       -0.1493862769
 H        -9.7643852873       10.7699590373       -0.8262854953
 H       -12.6229828682       11.9466562687       -0.2658461104
 H       -11.2459207573       12.2942285917        0.8634702390
 H       -12.7135246937       11.7230714113        1.5248797554
 Na      -10.4273266016        6.7008268626        1.5561511346
