117

 C       -13.9548323801        9.3700384020        0.7891321899
 C       -12.4808272367        9.0810610422        0.6197870593
 O       -12.1365856503        7.9462288025        0.4613219030
 C       -11.2559557722       10.2732096621        0.6865689058
 C       -10.2631213657        9.8870100998        1.8412321494
 O       -10.3642822705        8.7950064145        2.3461065253
 C        -9.3495320055       11.0755958462        2.1688300723
 C        -8.1899199240       10.6645471145        2.9910643799
 C        -7.1553763793        9.5842947906        2.0102249375
 O        -6.9768382512        9.7721910966        0.8253604842
 C        -6.2882999343        8.3213628179        2.6970321001
 C        -7.1181229953        7.0661094701        2.1550182065
 O        -8.0401130103        7.2486347630        1.4383230575
 C        -6.9246104816        5.6388845376        2.7340518699
 C        -7.8976286203        4.5910573355        2.2374465431
 C        -9.2544750652        4.5590568054        3.0406534978
 O        -9.4965395663        5.3014839192        3.9722321468
 C       -10.4185761048        3.6488206962        2.6030286834
 C       -10.5919107956        3.6531444522        1.1130736305
 O       -10.2890227132        4.6077880088        0.4168724884
 C       -11.3653754282        2.4737787320        0.5516312657
 C       -11.5814289975        2.5197226722       -0.9382080073
 C       -10.3013304203        1.8352457094       -1.8585025305
 O        -9.7244099907        0.9457828191       -1.3776185266
 C       -10.0969873655        2.4637393284       -3.3489618124
 C       -11.4263474608        2.2143531495       -4.0647177469
 O       -12.2282262158        3.1209080551       -4.2395262817
 C       -11.9282830722        0.8633546897       -4.6427386429
 C       -11.9474127791       -0.2804846924       -3.5764984848
 C       -12.1786083702       -1.7025873290       -4.1854969149
 O       -12.2797478815       -1.7387510538       -5.3686803441
 C       -12.1968868462       -2.9244502318       -3.2147931403
 C       -10.8843762721       -2.7222858524       -2.3806390692
 O        -9.8991141240       -2.0744693873       -2.6843109259
 C       -10.9219549696       -3.4771159522       -1.0677768914
 C        -9.5696721276       -3.4898833666       -0.4187026977
 C        -9.2260633485       -2.3557585139        0.4813745154
 O       -10.0680216643       -1.5107699939        0.8528574016
 C        -7.6151244433       -2.2407800905        0.9396726969
 C        -7.5951994061       -2.8548244617        2.3690860595
 O        -8.6939648295       -3.0674313082        2.9029753488
 C        -6.2879549227       -3.0109530614        3.0926174412
 C        -6.6412018551       -3.0838153507        0.0404913510
 C        -7.1600588789       -0.8215832440        0.8339194350
 C       -13.6435823257       -2.9860890605       -2.6462492177
 C       -12.0092694469       -4.2195902337       -4.1106321700
 C        -9.6226733537        3.9057262774       -3.0730570935
 C        -9.0124820324        1.5008009786       -4.0354633887
 C       -10.0631386414        2.1879183924        3.2739441738
 C       -11.8347679173        4.0460225424        3.2628461717
 C        -4.7323842519        8.2300229212        2.1326092856
 C        -6.3764128043        8.3553212729        4.1480567627
 C       -10.4607761188        9.9863572479       -0.6690941665
 C       -11.7094287117       11.6301848039        0.6327274697
 H       -13.9969559307       10.3735928138        1.2441919241
 H       -14.2848766639        8.5320323231        1.5221698181
 H       -14.4817798528        9.2511159480       -0.1693038884
 H       -10.0421463567       11.7040508383        2.7826460302
 H        -8.8968289540       11.6309372028        1.3242528263
 H        -8.3527666130       10.1464873450        3.8959221536
 H        -7.3297567384       11.4258489015        3.2996998786
 H        -7.0848494729        5.7484230484        3.8724301070
 H        -5.9760507730        5.1592779509        2.6084939325
 H        -7.5433617773        3.5261096908        2.2356804543
 H        -8.2204293037        4.9081084866        1.2079963707
 H       -12.3021223835        2.7505052550        1.0297423912
 H       -10.9295767579        1.3811904710        0.7910906122
 H       -11.9968629106        3.4843521879       -1.1357849902
 H       -12.4265293770        1.9111184222       -1.2929785354
 H       -11.4158713837        0.5536212237       -5.5656634038
 H       -13.0244526502        1.0634201129       -4.8080607559
 H       -12.6798752565       -0.0205270808       -2.7764117376
 H       -11.1130739613       -0.2551854298       -2.8754574906
 H       -11.1009592167       -4.5515847854       -1.5718173055
 H       -11.7969606828       -3.2420639669       -0.4191336564
 H        -8.6735260008       -3.5702847094       -1.0955035555
 H        -9.5324015532       -4.3693189547        0.3090936833
 H        -5.6556028324       -2.2040008525        3.0363900946
 H        -5.7891789027       -3.8082335277        2.5677399708
 H        -6.4622913624       -3.2812811380        4.1734665593
 H        -6.9492543582       -4.1263626567        0.1813096501
 H        -5.5508077238       -3.1107633793        0.3378673167
 H        -6.6569795039       -2.9695910253       -1.0557061256
 H        -6.2209579928       -0.6801309239        0.4792726673
 H        -7.3703190188       -0.1767386001        1.7449692641
 H        -7.8021512681       -0.3249133114        0.2244278456
 H       -13.8263472598       -2.0206961962       -1.9754617242
 H       -13.8647557050       -3.8436931563       -2.0234980466
 H       -14.4056253616       -2.9794776194       -3.4072635083
 H       -11.8813196208       -5.0309684700       -3.4912839718
 H       -11.0321026394       -4.0191019996       -4.5336755869
 H       -12.9340005120       -4.4040387985       -4.6910593065
 H       -10.4423097631        4.5480135369       -2.8085371366
 H        -9.2194765430        4.5732876323       -3.9496694443
 H        -8.9671028322        4.1450954634       -2.2630046399
 H        -8.3224729083        2.0852312216       -4.7023499024
 H        -9.3692259796        0.7855289454       -4.7154581485
 H        -8.4306159950        0.9720204858       -3.3796196293
 H       -10.8560344050        1.5708016418        3.6580725494
 H        -9.2124365345        2.2181046944        4.0431860212
 H        -9.6428165881        1.5485907964        2.4587929539
 H       -11.6955403428        4.2077656249        4.3219012885
 H       -12.4233143572        3.2112948489        3.0798437799
 H       -12.1210959641        4.9646750461        2.7019386082
 H        -4.4728392855        9.2229897636        2.3548628353
 H        -4.7222487404        8.0739598844        1.0552581568
 H        -4.0895777341        7.4868739856        2.4665057216
 H        -7.4214682514        8.3457880481        4.4834696817
 H        -5.9648691642        9.3271175987        4.5544734719
 H        -5.9078687523        7.4193843453        4.5255413493
 H       -10.6211503436        8.9445673222       -0.9669411810
 H        -9.3611331829       10.0503285074       -0.4933220506
 H       -10.6886951536       10.6322523347       -1.4833666901
 H       -12.2210167891       11.7985635605       -0.2907875302
 H       -10.8059759816       12.2574659746        0.6784383912
 H       -12.3482231936       12.0038291399        1.3890190767
 Na      -10.3449571736        6.7543434009        1.5763549787
