117

 C       -13.9134971260        9.5839910342        0.7567048277
 C       -12.3963733871        9.1823326987        0.6057751403
 O       -12.1725291530        8.0356450747        0.3080741212
 C       -11.2909388522       10.2216945778        0.5776765560
 C       -10.3520541493        9.7995790049        1.7396839457
 O       -10.2514542325        8.7576643100        2.3809062180
 C        -9.1695605000       10.8662859215        2.0650315280
 C        -7.8836977995       10.3826764231        2.8939308545
 C        -7.0035395351        9.5886477981        2.0442400273
 O        -7.0186393630        9.7721835098        0.8406827901
 C        -6.3233138021        8.3985603227        2.7198903652
 C        -7.1714780904        7.1242764223        2.2213399419
 O        -8.0256333564        7.3475338116        1.3648805839
 C        -6.9318353612        5.6872873064        2.7847595842
 C        -7.8726968717        4.6348627752        2.2671655068
 C        -9.3139157499        4.6431671124        2.9263421544
 O        -9.3931053751        5.4351732666        3.9264526658
 C       -10.4554237824        3.6215578428        2.5331577508
 C       -10.6643138939        3.6052972239        1.0804852026
 O       -10.1535811003        4.4351824073        0.4004212965
 C       -11.4979100197        2.4135604005        0.4191190928
 C       -11.5567135745        2.6163145310       -1.1082578214
 C       -10.5061752541        1.8631820418       -1.8356317863
 O        -9.8917799793        0.9621662161       -1.2512372522
 C       -10.1184320139        2.4459250686       -3.2442896600
 C       -11.4734000760        2.3014639326       -4.0041728609
 O       -12.2362112010        3.2784991880       -3.9730187939
 C       -11.8520535507        0.8901300059       -4.6865533643
 C       -11.8824627705       -0.3105654735       -3.6912087703
 C       -12.1802352482       -1.6602515292       -4.3623321901
 O       -12.3675788676       -2.0133815184       -5.5140195660
 C       -12.1775371458       -2.8441832413       -3.2940216653
 C       -10.9685752059       -2.8240842269       -2.3605324385
 O        -9.8962796158       -2.3377367113       -2.6082175776
 C       -11.0124555652       -3.6141452004       -0.8745848752
 C        -9.6402038784       -3.5578958843       -0.2473122431
 C        -9.2268486826       -2.2916400232        0.5401149303
 O        -9.9518506426       -1.3807433524        0.9543035774
 C        -7.7237996442       -2.3471125601        0.9519635297
 C        -7.6577425081       -2.7470935989        2.5128334425
 O        -8.6616423382       -2.9934616731        3.0559500158
 C        -6.3454023669       -2.9335939259        3.4333557177
 C        -6.8076586889       -3.4079338416        0.1708272091
 C        -7.2727171178       -0.8777095052        0.9521996422
 C       -13.5979741510       -3.0276123987       -2.6733738909
 C       -12.0641647715       -4.2960835258       -4.1218092943
 C        -9.7810119692        3.8401971190       -3.0849588693
 C        -9.0256872854        1.7200748566       -4.0961598218
 C        -9.8549350517        2.2380301585        3.0307227649
 C       -11.8536625299        4.0232673516        3.2400564589
 C        -4.8424392428        8.3939352455        2.1189068044
 C        -6.2619124810        8.4345547728        4.2487610123
 C       -10.5011995440        9.9728051268       -0.8365487294
 C       -11.6615271398       11.7618483078        0.6375660228
 H       -13.9487245020       10.6334955164        0.7656635672
 H       -14.2838926945        9.2161756726        1.6378948204
 H       -14.4246454848        9.0904617118       -0.1127612268
 H        -9.6181036301       11.6449306325        2.8406667780
 H        -8.7285743132       11.3821234243        1.1653648067
 H        -8.1702166164        9.7845493583        3.8022715353
 H        -7.1049242206       11.0338930006        3.3237504917
 H        -7.0575068492        5.7232356168        3.8456087148
 H        -5.8987032326        5.2765544407        2.5957710640
 H        -7.5401791565        3.6176085446        2.5792022889
 H        -7.9462940888        4.7505802347        1.2222727014
 H       -12.4734718962        2.3204809362        0.9957535941
 H       -10.8820156774        1.5499968256        0.3694868963
 H       -11.5762966620        3.6765534972       -1.3544090572
 H       -12.4772313844        2.3628498573       -1.6600267628
 H       -10.9716248087        0.7063869108       -5.2438822029
 H       -12.7338742035        0.8558463532       -5.3902274145
 H       -12.5083448629       -0.1612016303       -2.9063117340
 H       -11.0259997103       -0.3624250358       -3.0848664269
 H       -11.4524729134       -4.6724984990       -0.9393735170
 H       -11.6982105640       -2.9655284113       -0.2687771792
 H        -8.8493016340       -3.5467428504       -1.0231597681
 H        -9.3856226577       -4.4308317169        0.4430867762
 H        -5.8380029756       -2.0158977890        3.7386888361
 H        -5.5391432343       -3.5408627959        2.9166091987
 H        -6.7157740644       -3.3793096261        4.2855532018
 H        -7.1522466321       -4.4593463268        0.2564663680
 H        -5.6826333767       -3.4754882959        0.3990624331
 H        -6.8440652000       -3.1822966881       -0.8877601113
 H        -6.2241460989       -0.7164416079        1.1001119973
 H        -7.9094783791       -0.4008028169        1.6523960855
 H        -7.6012391655       -0.2440373854        0.1122229638
 H       -13.7074853331       -2.3375805700       -1.8832580458
 H       -13.8999148138       -3.9290926617       -2.2923228973
 H       -14.3650557784       -2.7550821142       -3.4510821765
 H       -11.7866313382       -4.9961860576       -3.3306649388
 H       -11.1916624501       -4.2489920254       -4.8200554567
 H       -13.0885447094       -4.6145322796       -4.3703670758
 H       -10.6280130790        4.5313274364       -3.2071161262
 H        -9.3455759531        4.1317015554       -3.9905192852
 H        -9.2703186626        4.3698831948       -2.3121227107
 H        -8.9633539027        2.3188299898       -4.9828213807
 H        -9.1112653850        0.6711030280       -4.5066858536
 H        -8.0432855714        1.5672108326       -3.7043444961
 H       -10.4401560701        1.4825030640        3.4332157900
 H        -9.1040855947        2.4192536292        3.7632511682
 H        -9.2505632877        1.8172679916        2.1633177043
 H       -11.7094484311        3.9223023498        4.3364036716
 H       -12.6312139005        3.3241263763        2.8261956232
 H       -11.9489005191        5.0418125890        2.9214691452
 H        -4.3589436456        9.2579778068        2.7344730176
 H        -4.8366314937        8.6086045018        1.0294108198
 H        -4.3470023070        7.4408260219        2.1161700000
 H        -7.3124791512        8.3726350861        4.6767946624
 H        -5.8440774320        9.3424986216        4.6164708503
 H        -5.7147918728        7.4679629831        4.5641364896
 H        -9.8069022462        9.1165957050       -0.8205288560
 H        -9.9957925130       10.8794060425       -1.2180908873
 H       -11.2605043592        9.6867560660       -1.5725307757
 H       -12.4210866504       12.0225139527       -0.0123218186
 H       -10.7067730895       12.3495137707        0.4053147221
 H       -11.9349893934       12.0754224002        1.5742100553
 Na      -10.2499681743        6.7369342612        1.5145504507
