117

 C       -13.7377740869        9.8118401943        0.5595043595
 C       -12.3599769105        9.1444312205        0.5070273581
 O       -12.1228343831        7.9925306488        0.5968635753
 C       -11.1408087241       10.2689651075        0.4359606305
 C       -10.0976217138        9.9404533899        1.5342273102
 O       -10.1574082342        8.8656995312        2.1232712298
 C        -9.0760209203       10.9674263169        2.0102187281
 C        -7.8913876169       10.3908151951        3.0213618101
 C        -6.9706961998        9.6535627853        1.9762042796
 O        -6.7007783401       10.0449548714        0.8361827617
 C        -6.2156071794        8.2461645696        2.6644949213
 C        -7.0956650673        7.0846050033        2.2999952312
 O        -7.9029277751        7.1628028167        1.4049739968
 C        -6.8134995494        5.7275999140        2.9264576016
 C        -7.7031211514        4.6284411567        2.4100709428
 C        -9.1666800900        4.7924805744        2.7929717217
 O        -9.6948372732        5.8167823716        3.2271478590
 C       -10.1638018008        3.5261618313        2.5830030547
 C       -10.5903893634        3.7568384289        1.0247459705
 O       -10.2041281240        4.7060000006        0.3924254400
 C       -11.5977907009        2.7170361900        0.4967792251
 C       -11.7721409964        2.6097371016       -1.1017109511
 C       -10.6412041219        1.9804559833       -1.8572710877
 O        -9.9949798226        1.0571149938       -1.4510507321
 C       -10.3066540827        2.4232040292       -3.3589084741
 C       -11.6126694449        2.0353406310       -4.0883886280
 O       -12.5948619288        2.8149017913       -3.9259789251
 C       -11.7656838266        0.7101808007       -4.7800741949
 C       -11.6913060200       -0.4098594034       -3.7931551965
 C       -12.0490507414       -1.6696975372       -4.3197041828
 O       -12.3709458500       -1.9167978314       -5.4792009668
 C       -12.1060996594       -2.9252915965       -3.2321229502
 C       -10.9161733096       -2.9104560317       -2.3081945850
 O        -9.7502421232       -2.8833793689       -2.6941239770
 C       -11.2944281155       -3.1507635568       -0.7963735698
 C       -10.1214949346       -3.6579682238        0.1333755714
 C        -9.4016100790       -2.4843290941        0.7115397966
 O       -10.0014506336       -1.3799631335        0.7981961238
 C        -7.8264345332       -2.5396709296        1.3779996285
 C        -7.9021252474       -2.8251189118        2.8876894742
 O        -8.8640824437       -2.9337649181        3.5636756383
 C        -6.6210558706       -2.5945099154        3.7441894888
 C        -7.0138060444       -3.7147390205        0.8609704211
 C        -7.1925032713       -1.1725103568        1.1152667621
 C       -13.5282823884       -2.8313033442       -2.6552352384
 C       -12.1771450804       -4.2076488859       -4.0094098693
 C       -10.0595752641        4.0485473503       -3.3871028074
 C        -9.0484215296        1.7640194909       -3.7864845954
 C        -9.5710377843        2.1103105329        2.8576373042
 C       -11.4738233057        3.7110529562        3.3778165540
 C        -4.8154126641        8.0363632593        1.9120204784
 C        -6.0662411103        8.3364956445        4.2374919878
 C       -10.2903986356       10.1502953099       -0.9707092715
 C       -11.5757561114       11.7652272129        0.4786278774
 H       -14.0970566440        9.9818422015       -0.4825348668
 H       -13.5718134534       10.8252125170        0.9086735242
 H       -14.4613726216        9.1353017148        1.2067896660
 H        -9.5558967843       11.7278793928        2.5843521224
 H        -8.4819065154       11.3453889815        1.2397575182
 H        -8.2481387798        9.7818565814        3.8117568478
 H        -7.2593747576       11.2381923963        3.5285296261
 H        -7.0452966291        5.7091414741        4.0416520929
 H        -5.8022783639        5.3779758348        2.8253740802
 H        -7.4248881990        3.6727675118        3.0102400080
 H        -7.7017460097        4.5217739266        1.2930128377
 H       -12.5659541894        2.8940347835        0.9550352757
 H       -11.1589229869        1.6687517140        0.7057976892
 H       -12.2475210609        3.4111958696       -1.5954961992
 H       -12.6570688890        1.9752221484       -1.0964458101
 H       -11.0144810552        0.5097013920       -5.5434387876
 H       -12.7444993821        0.7231161097       -5.4038716284
 H       -12.1883613855       -0.0869733855       -2.8128414946
 H       -10.6205648708       -0.4963537284       -3.3404751404
 H       -12.1965148184       -3.8869477967       -0.8136311918
 H       -11.6641941155       -2.2117566127       -0.4952766738
 H        -9.4095053727       -4.4096040696       -0.1928630984
 H       -10.5009213712       -4.0434603240        1.0946685247
 H        -6.7887976754       -1.7484699943        4.3566107119
 H        -5.6281978236       -2.3357614178        3.3014311694
 H        -6.6058380342       -3.3614153012        4.4839634556
 H        -7.4259867124       -4.5778219885        1.2974470650
 H        -5.9518671263       -3.7587865281        1.2471645133
 H        -6.7964698050       -3.7467724292       -0.1599534779
 H        -6.6225760955       -0.8251653073        1.9294250607
 H        -7.8281166253       -0.4297606873        0.5650182979
 H        -6.4601953011       -1.2528418903        0.3420873999
 H       -13.9285025725       -1.9363785488       -2.0992547108
 H       -13.7538325471       -3.5690617308       -1.9014520220
 H       -14.1218511668       -3.2369797316       -3.5298204104
 H       -12.6210363010       -4.9667746321       -3.5112370870
 H       -11.1387352297       -4.4264877595       -4.2744344664
 H       -12.8083599246       -3.9385279381       -4.8877512391
 H       -10.7826859080        4.8408776409       -3.2146116388
 H        -9.6643179181        4.5080338590       -4.3214521521
 H        -9.3467148132        4.3167153570       -2.6214135048
 H        -9.1633604870        0.7822605513       -4.2709696177
 H        -8.4502482561        1.5193986161       -2.9188962315
 H        -8.2759054930        2.2456474347       -4.2413093784
 H       -10.1205277818        1.3480829010        2.4290293761
 H        -9.6774543325        1.7238193657        3.9110469856
 H        -8.4426507960        2.1670438932        2.5873702374
 H       -11.0268873167        3.8167631541        4.3394062137
 H       -12.0408184304        2.8396414338        3.2575968163
 H       -11.9659383205        4.6184718585        3.0685051682
 H        -4.2079121379        8.9310344390        2.0150630149
 H        -5.1800838752        8.0128993850        0.9102372885
 H        -4.3080749051        7.1541319213        2.0151505816
 H        -7.0017622502        8.1506889412        4.7112465369
 H        -5.5284556288        9.1419235153        4.6873813715
 H        -5.3848072802        7.4791747848        4.3720552074
 H       -10.4263455183       10.9101956923       -1.7478505898
 H       -10.6190581729        9.1421040022       -1.2925592534
 H        -9.2405727011       10.0355262499       -0.8766659940
 H       -12.1283704661       11.8268978808       -0.4786938201
 H       -10.7890287557       12.6300812872        0.4190231341
 H       -12.3029338399       11.9686454654        1.2273817739
 Na      -10.3458701934        6.8471703500        0.8465072874
