117

 C       -13.5372274807       10.1689739513        0.3158021082
 C       -12.1835884304        9.3559799037        0.4304393384
 O       -12.0305128504        8.1779489736        0.3942236385
 C       -10.7932974025       10.3536522668        0.3007511697
 C        -9.8660420915        9.9687238544        1.5163018018
 O        -9.9386973363        8.8750247757        2.1189720196
 C        -8.9569399280       11.0759299771        2.0178489515
 C        -7.8040281118       10.4606100218        2.9372910661
 C        -6.7412406188        9.8536437845        1.9328833495
 O        -6.4068877541       10.3658964912        0.9014340908
 C        -6.0196666491        8.4547843757        2.4868986677
 C        -7.0250045200        7.1404957547        2.1957140477
 O        -7.4244407696        6.8838598184        1.0608409089
 C        -7.0991906364        6.0662770703        3.3084954983
 C        -7.6791089119        4.6453178476        2.8731385437
 C        -9.1534706757        4.7469545055        2.6218226753
 O        -9.7624854770        5.8445858117        2.6499107964
 C       -10.0545118261        3.3783668183        2.2910457221
 C       -10.7743163363        3.6906301236        0.9220994726
 O       -10.6570688466        4.7516773350        0.3742657512
 C       -11.7571416248        2.6255215854        0.3651956898
 C       -12.0503610075        2.5445596282       -1.2164435922
 C       -10.7861471023        2.1761168822       -1.9280053916
 O        -9.9476547431        1.5780499538       -1.2619963794
 C       -10.5743520840        2.6280249548       -3.4265118065
 C       -11.7433009341        1.8546601142       -4.1170937466
 O       -12.7933430309        2.5236254010       -4.1519795595
 C       -11.5790762464        0.4646813628       -4.6543193134
 C       -11.1737769341       -0.7373888560       -3.7873919999
 C       -11.8654163188       -2.0508654494       -4.2370352262
 O       -12.0701235336       -2.3324616370       -5.3812383997
 C       -12.2194035248       -3.0990008461       -3.1261918656
 C       -11.0428587416       -3.2119060238       -2.1290818228
 O        -9.9034671082       -3.4321468792       -2.4333582349
 C       -11.5197063091       -3.0168884873       -0.5496667251
 C       -10.2188760011       -3.4058785379        0.2733845587
 C        -9.5109838318       -2.2823482818        1.0382322665
 O        -9.9423225374       -1.1467691898        1.2038758461
 C        -8.0965125237       -2.6352819989        1.7568996935
 C        -8.3778954842       -2.5800569521        3.2108132416
 O        -9.4721081023       -2.8061389551        3.5691282814
 C        -7.2958081971       -2.3104606083        4.2461970387
 C        -7.7903952331       -4.1519539198        1.4544700944
 C        -6.9061026237       -1.7989528959        1.2220976037
 C       -13.5685578927       -2.8570403090       -2.5908937471
 C       -12.3609193207       -4.5173991230       -3.8268629524
 C       -10.6591934296        4.1694588720       -3.5474725952
 C        -9.0223438703        2.2684465309       -3.6717965458
 C        -9.3736783535        1.9803700326        2.1992851831
 C       -11.0867343857        3.4451534283        3.5096724378
 C        -4.8253286054        8.0837473359        1.5645972465
 C        -5.7237175893        8.5025593725        3.9539567840
 C       -10.1446648302        9.9208843622       -0.9963324093
 C       -11.2451882462       11.9022221514        0.2521397558
 H       -14.2938580387        9.3106141108        0.1615792923
 H       -13.6238411419       10.6797037587       -0.6206864745
 H       -13.8326811337       10.8654663510        1.1794498244
 H        -9.4377088099       11.8742222287        2.5052665894
 H        -8.3929910464       11.3442023574        1.2071719628
 H        -8.2249725443        9.7045211917        3.6200460323
 H        -7.2887451414       11.2627892281        3.5191986034
 H        -7.5939233815        6.4355596204        4.2358385028
 H        -6.0794687168        5.8629397932        3.5655250762
 H        -7.5806000182        3.9274896175        3.7621199223
 H        -7.2321349563        4.2821114096        1.9462099804
 H       -12.6621542400        2.7948640836        0.9695444475
 H       -11.3188348896        1.6478507218        0.6224293536
 H       -12.5403637062        3.4598861486       -1.4235215299
 H       -12.8257962096        1.8205359808       -1.5063059926
 H       -10.7925705591        0.5310026504       -5.3684802436
 H       -12.3859481081        0.1950146934       -5.4065817154
 H       -11.1818686306       -0.4009539553       -2.7070279437
 H       -10.0548533358       -1.0037938193       -3.9793954356
 H       -12.3547978726       -3.7244314424       -0.3442742800
 H       -11.8667977525       -2.0694974368       -0.4114980940
 H        -9.4491236675       -3.8875426855       -0.2653514740
 H       -10.4167732480       -4.0774428596        1.0794867068
 H        -7.5649120269       -1.7753098782        5.1924633067
 H        -6.3340957587       -1.7977341334        3.8776229504
 H        -6.9230072104       -3.2482675564        4.5849106152
 H        -8.6651182897       -4.6892131469        1.7716825451
 H        -6.8484232286       -4.5754631380        1.9720653295
 H        -7.6125780058       -4.3253778668        0.4088799202
 H        -5.9092282204       -2.3378631285        1.1199522426
 H        -6.7141745703       -0.8646912363        1.7541290395
 H        -7.1957604317       -1.4763072630        0.1343755823
 H       -13.6128253116       -1.9410011562       -1.9695056744
 H       -13.9118467933       -3.7005079945       -2.0106360212
 H       -14.3502523016       -2.5754481109       -3.4149433524
 H       -12.6021359139       -5.2800006225       -3.1104315493
 H       -11.4836922790       -4.7064765471       -4.4492146812
 H       -13.1335002794       -4.3128799873       -4.5536557472
 H       -11.7218712337        4.4691030793       -3.4006260934
 H       -10.3244617564        4.5807152540       -4.4541984573
 H       -10.1632167109        4.8470383689       -2.8389716502
 H        -8.3093964827        2.3960414810       -2.9095019341
 H        -8.5515063350        2.8602395669       -4.5285252036
 H        -8.8586976683        1.2617066323       -4.0811252057
 H       -10.1789667056        1.2457448496        2.1996748786
 H        -8.5146550927        1.6947504574        2.8223779422
 H        -9.0195905456        2.0946903247        1.1219787356
 H       -10.4162893427        3.1440509075        4.2956815653
 H       -11.9758600001        2.8445499498        3.3048247626
 H       -11.3769230617        4.4597545712        3.5694674756
 H        -4.0510866717        8.9349499471        1.6873974278
 H        -5.2167804870        8.2269251470        0.5771892500
 H        -4.2809039796        7.1828518492        1.7900955541
 H        -6.6267491056        8.5216193354        4.5547471650
 H        -5.0845490975        9.2709726906        4.2011127977
 H        -5.0620480238        7.6521636361        4.2290826741
 H        -9.0443704959        9.8415950486       -0.9280348290
 H       -10.4381109492       10.7216935726       -1.6733729734
 H       -10.4295808363        8.9128185072       -1.3390520918
 H       -11.8363109807       11.7832406594       -0.6859804125
 H       -10.4528299438       12.7421948309        0.1094393963
 H       -11.9490973564       12.1141551392        1.0826816732
 Na       -9.9200947881        6.8918941177        0.6278625671
