117

 C       -13.3719041898       10.1700468315        0.3270361387
 C       -12.0055966583        9.5210149219        0.3152699253
 O       -11.9282335951        8.2814943121        0.3782852601
 C       -10.8314851858       10.3242666998        0.2001267077
 C        -9.8011934453        9.8508557512        1.5401740633
 O        -9.8766744026        8.7913764626        2.0822399393
 C        -8.8820140410       10.9278300414        1.9059628669
 C        -7.7594228422       10.4402355918        2.8767553367
 C        -6.7153646448        9.8574346683        2.0088967414
 O        -6.4497907876       10.3084501971        0.9413904539
 C        -6.0476735340        8.4117264934        2.3692524870
 C        -6.8780346715        7.1499538780        2.1352510767
 O        -7.4236054234        6.8671054660        1.0455612266
 C        -7.1806437660        6.2033211534        3.3347153277
 C        -7.5877393443        4.7968150706        2.9257852792
 C        -9.1805859178        4.6730706479        2.5843126126
 O        -9.7943856246        5.7550512527        2.7565109785
 C       -10.0537586005        3.4668985334        2.1683672405
 C       -10.9836261512        3.7897709841        0.8924192786
 O       -10.8336884398        4.7584800202        0.2068329953
 C       -11.8854889421        2.6038523595        0.3685284988
 C       -12.1358220587        2.5022657355       -1.1423611182
 C       -10.7327682044        2.2881325932       -1.7908437697
 O        -9.8398825215        1.6809201411       -1.2007735372
 C       -10.5604610084        2.6501606324       -3.3514204617
 C       -11.7141088558        1.9160556691       -4.1476725283
 O       -12.7714916574        2.4160418774       -4.1697176932
 C       -11.5100669419        0.5561571939       -4.8558007502
 C       -11.1173895060       -0.7229128241       -3.8636205474
 C       -11.8358438366       -2.1529009811       -4.2821143348
 O       -11.9301581365       -2.3713112337       -5.4622114141
 C       -12.3095087854       -3.2317659255       -3.1091566576
 C       -11.1331038666       -3.3637051486       -1.9508630555
 O       -10.0571840707       -3.4988548892       -2.4635685918
 C       -11.3766196626       -3.0156960572       -0.5530257563
 C       -10.2753101431       -3.4780681290        0.4993317650
 C        -9.4595359534       -2.2608734826        1.1115587259
 O        -9.7806038506       -1.1285340723        1.2631596163
 C        -8.1743989484       -2.7701665873        1.7316905166
 C        -8.4754465628       -2.5799036423        3.3181427131
 O        -9.6588537479       -2.6716000693        3.6692699677
 C        -7.4486464850       -2.2346161616        4.3924932030
 C        -7.8731245668       -4.3313531272        1.5976093018
 C        -7.0115517197       -1.8129931598        1.2731766928
 C       -13.7184821344       -2.8159100232       -2.5315764084
 C       -12.3653005102       -4.7503324640       -3.7583099400
 C       -10.7880132666        4.1635560847       -3.5176546678
 C        -9.1400638319        2.3842278141       -3.8811565116
 C        -9.2695898895        2.1489731860        2.0271756932
 C       -11.0816530700        3.2657110369        3.4932001156
 C        -4.7607114657        8.3161692783        1.4667345178
 C        -5.6244302754        8.5817009106        3.8935177893
 C        -9.9961806098        9.9632283716       -1.1381134401
 C       -11.0735447256       11.7898040689        0.2648566629
 H       -13.9727247958        9.3325276627        0.8079890843
 H       -13.9778088667       10.3520848053       -0.6508394178
 H       -13.4152839066       11.0452012672        0.9495528165
 H        -9.4186211994       11.5497515484        2.5960025786
 H        -8.4309154873       11.4472429251        1.0814346449
 H        -8.3078475648        9.8547645872        3.7326877767
 H        -7.3109167519       11.3357056841        3.2609531532
 H        -7.9236808821        6.6516976808        3.9712059870
 H        -6.2424763607        6.0323148572        3.9818086298
 H        -7.2765467848        4.1437946271        3.8243640201
 H        -7.0015112932        4.5830069829        1.9729365743
 H       -12.8707830914        2.9071831494        0.9976458345
 H       -11.5242179526        1.6371807226        0.6822258355
 H       -12.7659145963        3.3617403555       -1.4270248626
 H       -12.7115195972        1.6354119500       -1.3588493866
 H       -10.7360207353        0.5822283739       -5.7043809583
 H       -12.3917228952        0.2818053091       -5.4858350148
 H       -11.3413010287       -0.3280028828       -2.8168836166
 H        -9.9849146780       -0.9951438666       -3.8805820328
 H       -12.3667895089       -3.3969021967       -0.3541108322
 H       -11.4819342453       -1.8707394649       -0.5692025568
 H        -9.4899222906       -4.0562651918        0.1256753319
 H       -10.6404130489       -4.0708260080        1.3548828978
 H        -7.8087786891       -1.7219268559        5.2997591597
 H        -6.7156650519       -1.6253230521        3.9759674413
 H        -6.8651553420       -3.0655466142        4.7774825852
 H        -8.7795862866       -4.8616360281        1.9418317476
 H        -7.0217199466       -4.6032365105        2.2151486981
 H        -7.7082926424       -4.6937083049        0.5613190358
 H        -5.9925834739       -2.2037648349        1.0988911842
 H        -6.8954095668       -1.1484735743        2.0872955168
 H        -7.2721644898       -1.2118550567        0.3609935234
 H       -13.6556607350       -1.7433149755       -2.3355463861
 H       -14.0612581869       -3.3664462854       -1.5571912545
 H       -14.5731250496       -2.7685550243       -3.2213932637
 H       -12.4451592180       -5.3893626433       -2.8359241638
 H       -11.5454335535       -4.9671875976       -4.3427699399
 H       -13.1608448919       -4.8539289381       -4.3850553718
 H       -11.8857223872        4.2799776391       -3.7144119895
 H       -10.2580236118        4.5882311636       -4.3121426469
 H       -10.6318097446        4.9831389723       -2.7781480706
 H        -8.3946347405        3.0888143097       -3.6060584943
 H        -9.0019874984        2.5138836635       -4.9720151857
 H        -8.6819744089        1.3666669256       -3.7059595989
 H       -10.1571458379        1.3351145789        1.9312336023
 H        -8.5667001735        1.9695684238        2.8600107424
 H        -8.6943723747        2.1851324877        1.1104042007
 H       -10.5659280297        2.6523731915        4.1723136686
 H       -11.9836620653        2.8532252393        3.0336854778
 H       -11.3154884960        4.2214529845        3.8157173142
 H        -4.1403948642        8.9902972311        1.9335332999
 H        -4.8737007265        8.6587738303        0.4818053587
 H        -4.2242144402        7.3980875531        1.6200130662
 H        -6.4820439958        8.4259538579        4.5560766370
 H        -5.1216948806        9.4891123231        4.1553858933
 H        -4.9015326088        7.8246116337        4.1357807960
 H        -9.4264745631       10.8641555895       -1.2514738621
 H       -10.7517676988       10.0357831719       -1.9119147626
 H        -9.2683769486        9.1424258102       -1.2236807905
 H       -11.5913424380       11.9549295870       -0.7138350767
 H       -10.1551220325       12.2670773814        0.2170197279
 H       -11.7241265697       12.1400911701        1.1552762267
 Na       -9.9340089111        6.9119700119        0.6932590734
