117

 C       -13.2550371563       10.0005756168        0.4327181731
 C       -11.7996637595        9.4582430683        0.1663733816
 O       -11.8107397150        8.2322886824        0.1029793285
 C       -10.5654000255       10.3068879865        0.0898780427
 C        -9.6276880045       10.0104594375        1.2814929239
 O        -9.6229017857        8.9049209785        1.8161786552
 C        -8.8669960279       11.0309738130        2.1553204665
 C        -7.6641929588       10.2419811013        2.9088311251
 C        -6.5942586936        9.7278200957        1.8764107017
 O        -6.5523426371       10.1968880499        0.7448018818
 C        -5.7924906252        8.3879079623        2.3684355474
 C        -6.9039081274        7.2297592994        2.0944696967
 O        -7.4205129106        7.1677950290        1.0085190570
 C        -7.2746609887        6.2645406002        3.2121042458
 C        -7.9500368379        4.8702721535        2.7263358487
 C        -9.4078082439        4.9186809720        2.6055196674
 O       -10.1201853719        5.8366511020        2.9031655710
 C       -10.0553203795        3.5226023559        2.0974251536
 C       -10.9650202717        3.7547465416        0.8307107339
 O       -11.0067610519        4.8715998029        0.2743764992
 C       -11.9960099782        2.6870853892        0.4023440375
 C       -11.9822207648        2.5610714835       -1.1773209630
 C       -10.6209373935        2.3354345348       -1.8385847456
 O        -9.6049622634        2.0502814186       -1.2432830916
 C       -10.6228582643        2.5874576282       -3.3534698767
 C       -11.8005225234        1.6581893072       -4.1872705947
 O       -12.9800453867        2.0797620723       -4.2141963084
 C       -11.3953123686        0.3072958437       -4.7100894843
 C       -11.4097911335       -0.8028688936       -3.6963758260
 C       -11.8526717809       -2.2132470522       -4.3140010653
 O       -11.7715034046       -2.5934022828       -5.4304376014
 C       -12.2467268400       -3.1516697989       -3.1087436582
 C       -11.1593793224       -3.1352495709       -2.0405294900
 O       -10.1005753539       -3.7568011553       -2.1141213480
 C       -11.4258638399       -2.7219224713       -0.5072408688
 C       -10.6435756842       -3.4873146264        0.4308677922
 C        -9.6003497077       -2.4887442804        1.1706147431
 O        -9.6789742166       -1.2717933695        0.9155309016
 C        -8.3543008348       -2.8782906590        2.0400982525
 C        -8.7673026715       -2.5552533581        3.6086946873
 O        -9.8889329178       -2.5120032305        3.9468687720
 C        -7.6583718039       -2.1582333609        4.6116062461
 C        -7.7970028715       -4.3271862183        2.0718529452
 C        -7.0542973897       -2.0271790836        1.6063113959
 C       -13.6509940817       -2.6590446260       -2.6474209613
 C       -12.4799176517       -4.5251200780       -3.5966558300
 C       -11.1772563172        4.0294380119       -3.4208877761
 C        -9.2492610671        2.4308120401       -3.9185470769
 C        -8.9136329248        2.4801343080        1.5456106433
 C       -10.9179758250        2.9651731981        3.2021721013
 C        -4.5707048005        8.3612359977        1.4342742548
 C        -5.3815304087        8.6120130703        3.7891114467
 C        -9.7008416271        9.9488665250       -1.0923171704
 C       -10.7788117369       11.8886376934        0.1078805466
 H       -13.7611524790        9.8230175852        1.3512659549
 H       -13.8282362520        9.6735877060       -0.3171678829
 H       -13.1807871527       11.0672620901        0.2427340804
 H        -9.4858944910       11.5213021248        2.9783636261
 H        -8.2544939246       11.7979119058        1.5912981940
 H        -8.1559528261        9.4117198200        3.2381723177
 H        -7.2447979201       10.8765403083        3.7460277927
 H        -8.0904223612        6.7635826161        3.8223802467
 H        -6.4640804047        6.1360480039        3.8654228526
 H        -7.7985749776        4.1173711516        3.4464002501
 H        -7.4930113276        4.6228818363        1.8099704529
 H       -12.8829673655        2.9048123218        0.8797802209
 H       -11.6197429527        1.6537113562        0.6013994729
 H       -12.4524435021        3.4656280436       -1.6296752363
 H       -12.6760700710        1.6429351320       -1.3334453583
 H       -10.3832101703        0.2920625077       -5.0436859661
 H       -11.9011007615       -0.1030907034       -5.5621398663
 H       -11.9771034771       -0.5936168089       -2.8069184977
 H       -10.4073982724       -0.9641638722       -3.4912792373
 H       -12.5280747621       -2.7144568327       -0.2041212064
 H       -11.0700471506       -1.6951589263       -0.4199348047
 H        -9.9019143419       -4.2538199839        0.0173709871
 H       -11.2539448716       -4.0301306679        1.1763726112
 H        -8.2129586292       -2.1497897275        5.5334714596
 H        -7.0609766936       -1.2102061760        4.4238174427
 H        -6.8285909519       -2.8156820973        4.7629712530
 H        -8.5638354609       -4.9742484571        2.4602943448
 H        -7.0026962178       -4.3274059470        2.8609965992
 H        -7.5621024083       -4.7486634195        1.1129737665
 H        -6.1482043036       -2.5138178772        1.9128427237
 H        -6.9322799890       -1.0818472106        2.1515825629
 H        -7.0214131668       -2.0903374664        0.5257810909
 H       -13.9191568190       -1.6381846079       -2.4646901434
 H       -13.8864151016       -3.2303703845       -1.8563564842
 H       -14.4194843342       -2.9189023997       -3.3899691575
 H       -12.8388455577       -5.1160889726       -2.7998918798
 H       -11.4165915938       -4.8007746655       -3.9200326563
 H       -12.9882312413       -4.6124933011       -4.6087674030
 H       -12.1801385092        4.3804576644       -3.4011416366
 H       -10.6182989660        4.6681162691       -4.1276081328
 H       -10.7716126574        4.5417932903       -2.5827748050
 H        -8.8261782558        3.3264682669       -4.3964101571
 H        -9.0261030268        1.7568173781       -4.7561343030
 H        -8.5829398998        2.1670746990       -3.1315709790
 H        -9.2950222277        1.6332772830        1.0974425149
 H        -8.3116842619        2.3134057999        2.3965943077
 H        -8.2241989323        2.9441523701        0.8325986549
 H       -10.1770303034        2.5283100558        3.9125825297
 H       -11.5515067653        2.2062417986        2.7611983522
 H       -11.4782315145        3.8573821720        3.5532392432
 H        -3.7429571635        9.1730966983        1.3470286658
 H        -5.0597674865        8.2615372883        0.4633909914
 H        -4.1459020571        7.4159972068        1.7251597094
 H        -6.1288760961        8.5603222329        4.6162192191
 H        -4.8863088605        9.5998752375        3.8511504075
 H        -4.6391094103        7.8007865264        4.1399114639
 H       -10.2945162329        9.9016458015       -2.0356045258
 H        -9.1363586516        9.0241392823       -0.9464359093
 H        -9.0154187399       10.7875640743       -1.1620784853
 H       -11.5965309866       12.0759928642       -0.4889798227
 H        -9.8727469995       12.4031007288       -0.2924554992
 H       -10.9762377750       12.1474984966        1.0639071965
 Na      -10.0068736780        6.7822638188        0.8099493060
