117

 C       -13.1585445803       10.0735196783        0.3974904864
 C       -11.7244776317        9.4780325411        0.0904799777
 O       -11.5606238036        8.3254915921       -0.0861458104
 C       -10.4573562341       10.3425751321        0.1664450730
 C        -9.6420147679        9.9665663668        1.4653090456
 O        -9.4316652091        8.7881577554        1.7589050533
 C        -8.7380599340       11.0492002081        2.3140140949
 C        -7.5844363505       10.2741024769        2.9079646442
 C        -6.6535823569        9.7212889519        1.8382947548
 O        -6.5943823798       10.1037000509        0.7207984803
 C        -5.8315223899        8.4566463574        2.2863376770
 C        -6.8685205208        7.3501715089        2.0594205261
 O        -7.4746149893        7.2985865026        0.9882577985
 C        -7.1829422518        6.4133384786        3.2087206952
 C        -7.9185481147        5.0921049641        2.6724522246
 C        -9.4738952236        4.9207945240        2.5797520381
 O       -10.3824129351        5.7232622243        2.8980023584
 C       -10.0501291813        3.5559474484        2.0745982993
 C       -10.9870198693        3.8519804495        0.8083601622
 O       -11.0056422015        4.9428968200        0.3237543926
 C       -11.7602720158        2.6313295350        0.3181983970
 C       -12.0315654408        2.3934639378       -1.2331331045
 C       -10.7487375091        2.3078075626       -1.9090445169
 O        -9.6905755057        2.2322328025       -1.2863726723
 C       -10.6581963464        2.5466756230       -3.4334263150
 C       -11.8127696807        1.5966672498       -4.0995979771
 O       -12.9694556646        1.9168075481       -4.1638036217
 C       -11.3195645537        0.3256690680       -4.7313374077
 C       -11.4598773554       -0.8412675153       -3.6595716735
 C       -11.7907587010       -2.2688744368       -4.1258720573
 O       -11.6956891799       -2.4861715209       -5.3104132239
 C       -12.2985810219       -3.2499750262       -3.0342326694
 C       -11.2019351722       -3.3203575313       -1.8422651734
 O       -10.1368966577       -3.7744303322       -2.1509155657
 C       -11.4666879830       -2.6016338517       -0.4961684342
 C       -10.5801626624       -3.3647528627        0.5957013572
 C        -9.4887660329       -2.5012363131        1.1326069377
 O        -9.6279568510       -1.3431125922        0.8172697628
 C        -8.3648443128       -2.9143105920        2.2309477347
 C        -8.8207837566       -2.4445079612        3.7092131463
 O       -10.0061958905       -2.5025452907        3.9744983025
 C        -7.7329253705       -2.1759445931        4.6546504564
 C        -8.0971491720       -4.4542329180        2.2982977329
 C        -7.2114282994       -1.9861172649        1.8170639123
 C       -13.7219696357       -2.4931877429       -2.6568757792
 C       -12.4300477318       -4.6475939144       -3.6725733306
 C       -11.2765715543        3.9664223635       -3.6206140540
 C        -9.2313896685        2.5278317604       -3.9396472566
 C        -8.8981561739        2.7032735812        1.4151289574
 C       -10.7659877229        2.7708952141        3.2217896335
 C        -4.5709295746        8.0917796527        1.3421420907
 C        -5.3121305786        8.5088811529        3.7932730333
 C        -9.5581668188        9.7898293845       -1.1683021079
 C       -10.9429128196       12.0069480381       -0.1485745354
 H       -13.1783167767       10.0089480509        1.5174254337
 H       -14.0099259618        9.4642613835        0.0143883591
 H       -13.3555975192       11.0698152810        0.1480332818
 H        -9.2765651233       11.4887812550        3.1783123152
 H        -8.2122353186       11.7896818149        1.8345230022
 H        -8.1037870160        9.4729356117        3.4354405065
 H        -7.0686635029       10.9412616343        3.5570807946
 H        -7.6648161321        6.9002921392        4.0702934478
 H        -6.2189105899        6.1150304798        3.5902160394
 H        -7.6266109040        4.1536101915        3.2048377571
 H        -7.5547083043        5.0378690677        1.6793353287
 H       -12.7604304967        2.7202245859        0.8446216297
 H       -11.3486222851        1.7646553282        0.6471186648
 H       -12.4900957658        3.3180784419       -1.5798435901
 H       -12.7430486671        1.5495987224       -1.2651110675
 H       -10.3791364101        0.3022148234       -5.2296309350
 H       -12.1442445740       -0.0100501480       -5.3740299066
 H       -12.3967351255       -0.5600728053       -3.2146096561
 H       -10.5814561197       -0.8085485891       -2.9701328005
 H       -12.5383340960       -2.7251885069       -0.2777001113
 H       -11.2288357974       -1.6214178577       -0.7130538017
 H       -10.1902745354       -4.2829881150        0.1788578970
 H       -11.1690355099       -3.6759389893        1.4709956013
 H        -8.0730727953       -2.4456407129        5.7292525072
 H        -7.2818106674       -1.1615552120        4.5903340473
 H        -6.8286090974       -2.7215108254        4.4303407167
 H        -8.9862093809       -5.0293088020        2.4892457048
 H        -7.4103466064       -4.6252813394        3.1692053851
 H        -7.7870712376       -4.8297082978        1.3630180440
 H        -6.3490852938       -1.8507546100        2.5492981146
 H        -7.5921860142       -1.0241483233        1.8217714486
 H        -6.8001373701       -2.4842662083        0.8656562391
 H       -13.7351324592       -1.6593360022       -2.0564489609
 H       -14.1864932954       -3.3151750349       -2.0715648493
 H       -14.4492109718       -2.2459523582       -3.4416848273
 H       -13.1079382332       -5.3148959105       -2.9906032781
 H       -11.4107177894       -5.0423426545       -3.7946914819
 H       -12.7470546226       -4.5916218753       -4.7082662243
 H       -12.3107142356        4.2318243005       -3.3669050973
 H       -11.0626468616        4.3869443436       -4.5141120895
 H       -10.7277059717        4.6699348861       -2.9426117817
 H        -8.9689247861        3.3208592843       -4.5096540878
 H        -8.8428868206        1.6877135173       -4.5964084895
 H        -8.6006896457        2.5236238828       -3.0309175456
 H        -9.4640936256        1.7944022835        0.9626767126
 H        -8.2515834359        2.4240930138        2.1679449291
 H        -8.3320217373        3.1146157919        0.6245395177
 H        -9.9657876729        2.9091325227        3.9699680554
 H       -10.9339778272        1.6507787055        3.0290256674
 H       -11.6103982220        3.3803901972        3.4231574581
 H        -3.8731909940        8.9749561929        1.1399726546
 H        -4.9461472749        7.7792955211        0.3259188140
 H        -4.0221634833        7.2355062370        1.9270695675
 H        -6.0611898813        8.5466888721        4.6398365231
 H        -4.6599589595        9.3203098356        3.9813548040
 H        -4.8299556351        7.5130802268        4.0189329285
 H       -10.0534724333        8.9650226608       -1.6780207124
 H        -8.5078977695        9.5480386802       -0.8819521804
 H        -9.4132848579       10.6922279989       -1.8203471938
 H       -11.7024324125       12.0023232225       -0.9413570783
 H       -10.1183164890       12.6179621301       -0.3977597282
 H       -11.4213586836       12.3503107029        0.8237077578
 Na       -9.9838043310        6.8094763774        0.7772151947
