117

 C        -8.5745018788        9.3979419220       -2.3165376780
 C        -8.2912671544        9.9256485093       -0.8378841327
 O        -9.2432958484       10.0259394503       -0.0543696469
 C        -6.8359580364       10.2329936871       -0.3260583145
 C        -5.8909658113        9.2567579944       -0.9409651374
 O        -5.6882004543        9.3222823154       -2.1509912693
 C        -4.8955537890        8.3976757158       -0.1684863604
 C        -4.7296001272        6.9063199685       -0.6615011922
 C        -6.1227530454        6.2383543311       -0.6995302769
 O        -7.1333010961        6.6905378842       -0.2418914738
 C        -6.1364373394        4.7337785672       -1.4005394184
 C        -5.9657061223        3.7784045395       -0.1189360325
 O        -4.9188078396        3.9773882127        0.5374652254
 C        -7.0900043628        2.9523093287        0.5142295693
 C        -6.5477426051        2.1165262728        1.6971865082
 C        -7.4895525334        0.9974509341        2.1661443972
 O        -8.3918377682        0.5061189405        1.4806919164
 C        -7.1942700012        0.2771144213        3.5214435927
 C        -8.4862265043        0.8191318044        4.3129915441
 O        -8.3459462013        1.5559807151        5.2341033113
 C        -9.9640541865        0.4304512208        3.8187368771
 C       -10.8862299630        1.5328300311        4.1411645809
 C       -11.0734559690        2.6427589386        3.1231414980
 O       -10.2403398324        2.7804468299        2.2330634802
 C       -12.3990687867        3.4895813555        2.9738666220
 C       -13.0811095425        3.0213242529        1.5923934555
 O       -12.5116939930        2.7734160082        0.5355028640
 C       -14.6467144116        3.2293802365        1.5140545033
 C       -15.1496474795        2.6965983641        0.1660063208
 C       -14.7290097734        3.7926136243       -1.0195903651
 O       -14.2453799486        4.8180711648       -0.6289722272
 C       -14.9395711852        3.2751781604       -2.4960215944
 C       -13.6415877780        2.6307568594       -2.9551023612
 O       -13.3956093174        1.4922900455       -2.9370397948
 C       -12.3457092429        3.5652488818       -3.2721617452
 C       -11.1347086563        2.6654313814       -3.6568051523
 C       -10.5704703120        1.6554054978       -2.6798252770
 O        -9.8131609473        2.1561495783       -1.8333946086
 C       -10.6188264278        0.0951001682       -2.7318186589
 C       -11.9187698016       -0.4533030669       -1.8628174995
 O       -11.8556607082       -0.2682847750       -0.6605219165
 C       -13.0414811726       -1.4253740019       -2.5191018036
 C       -10.7261059137       -0.3970861636       -4.1919436722
 C        -9.3377145957       -0.4618081902       -2.0863665674
 C       -16.1055439886        2.2493004889       -2.6028904529
 C       -15.3397339571        4.5607245656       -3.2363384230
 C       -13.4747038303        3.4778157043        4.1256364629
 C       -12.0876117793        4.9578822945        2.7278182984
 C        -7.1918429151       -1.2735154475        3.2844957325
 C        -5.9268624880        0.6966480542        4.2884811608
 C        -7.4716447702        4.3817510018       -2.1282402002
 C        -4.9786896719        4.4906395084       -2.3553014490
 C        -6.4503071995       11.6498037198       -1.0379336162
 C        -6.8073617101       10.2633949664        1.2287400862
 H        -9.4409426720        8.7737027030       -2.1691865649
 H        -7.8672194547        8.8303043530       -2.9123134668
 H        -8.8913677106       10.2837537491       -2.8205145025
 H        -5.2329806733        8.3660526725        0.8276862481
 H        -3.9753789506        8.7911821143       -0.0712993667
 H        -4.0791595837        6.2966949229        0.0205131713
 H        -4.2176835851        6.9254476091       -1.6109861081
 H        -7.5032367707        2.2763255124       -0.2962056598
 H        -8.0130736251        3.5031980470        0.7905552084
 H        -6.1921524332        2.8502176565        2.4694234012
 H        -5.7078697089        1.5160226589        1.2697150165
 H       -10.2240342861       -0.4535784218        4.3340951901
 H        -9.9760138470        0.0896447715        2.7799802376
 H       -10.6239172321        2.0584781520        5.0770667917
 H       -11.8434891673        1.2290699951        4.3780068375
 H       -14.8847752914        4.3255597782        1.7016788942
 H       -15.1039050048        2.5469805369        2.2798255552
 H       -16.1816081608        2.5537266975        0.2941632944
 H       -14.7555303359        1.7476193930       -0.0054931638
 H       -12.0754523068        4.0936418247       -2.3590826980
 H       -12.4305965346        4.3415577054       -4.0719531809
 H       -10.4928035570        3.3678550311       -4.0108754056
 H       -11.5372065091        2.1621084255       -4.5099333125
 H       -13.5046724018       -2.0827316408       -1.7167015063
 H       -12.4646427316       -2.0028828316       -3.2278244919
 H       -13.5836410200       -0.7287380760       -3.1450124651
 H        -9.8012614579       -0.0654604545       -4.7662754700
 H       -11.6922574483       -0.2209928799       -4.6497186844
 H       -10.7353692580       -1.4617710259       -4.1472187636
 H        -9.3365613241       -0.4409832594       -0.9470414229
 H        -8.5370116546        0.0863819844       -2.4345288196
 H        -9.2202707215       -1.5016838136       -2.3398483639
 H       -16.0690994326        1.4528014534       -1.9333153891
 H       -16.1681045896        1.8850886897       -3.6329101294
 H       -17.0915498136        2.7091607646       -2.4076026976
 H       -15.3715390767        4.3747962362       -4.3132438700
 H       -14.7155694078        5.3888640145       -3.0935825851
 H       -16.4203407952        4.8460076380       -2.9061949346
 H       -13.0166911931        3.7460404454        5.1124176190
 H       -13.8270597199        2.4419235466        4.4236980185
 H       -14.3148941905        4.1046527112        3.8842919909
 H       -11.5643561543        5.4777099661        3.5672074496
 H       -12.9744056328        5.5409937533        2.4947854641
 H       -11.4381181493        4.9468903479        1.7887087563
 H        -7.6466361938       -1.8211328890        4.0836888928
 H        -6.2379547314       -1.6818867062        3.0999739482
 H        -7.9033245291       -1.5402359011        2.4318525084
 H        -5.0846518312        0.0657727527        3.9724086239
 H        -5.9968729770        0.5883092429        5.3603429656
 H        -5.7719417565        1.8111196353        4.0780324599
 H        -8.3467762575        4.6506064123       -1.5786088896
 H        -7.5189704237        3.2582174011       -2.1905847400
 H        -7.4366470664        4.9217921542       -3.0590385409
 H        -4.9997102047        5.2538514509       -3.1285136433
 H        -5.1830538919        3.5719403054       -2.9268959354
 H        -4.0004495246        4.4778497647       -1.9538298826
 H        -5.4087908141       11.7576607534       -0.7933673104
 H        -6.9563944399       12.3775181483       -0.3705748443
 H        -6.9226671023       11.6793426274       -2.0099046451
 H        -7.1672838998        9.3477497717        1.7128066606
 H        -7.3237948249       11.1691790282        1.5381335659
 H        -5.7795159333       10.4926756406        1.5245601901
 Na      -10.4081751828        1.2823310328        0.3441325996
