117

 C       -12.9384866132       10.0370866504        0.4044967200
 C       -11.6217894664        9.4616991994        0.1630748116
 O       -11.5488915246        8.3105034313       -0.2628553719
 C       -10.3388543545       10.3982630189        0.0778461599
 C        -9.5131519476       10.0756842305        1.4443602622
 O        -9.4826306070        8.9087946666        1.6913189155
 C        -8.8138285969       11.0346937578        2.2646489033
 C        -7.4612726503       10.4435575064        2.9590601523
 C        -6.5422957266        9.7255811784        1.8526591774
 O        -6.6450687701       10.0715287897        0.6964998647
 C        -5.8083972413        8.3613192088        2.2289605125
 C        -6.9429246829        7.3598977290        2.0563858418
 O        -7.5250008024        7.3426968605        0.9653346680
 C        -7.3535629392        6.3841594106        3.1509121547
 C        -8.0074684934        5.1478366948        2.6406399751
 C        -9.5317845896        4.8994551277        2.6343563352
 O       -10.3639536354        5.7595090151        2.9766913953
 C        -9.9161311235        3.5488369605        2.0244465175
 C       -11.0375039883        3.8017754444        0.7695145705
 O       -11.1474262731        4.8491640175        0.1856970735
 C       -11.7682440242        2.5312990239        0.4583272377
 C       -12.1374060249        2.4043296808       -1.0918798677
 C       -10.8101654431        2.4400561257       -1.8789109855
 O        -9.7200905464        2.3137145842       -1.3667477636
 C       -10.7035730744        2.6635564023       -3.5805290626
 C       -11.7033232978        1.5509951269       -4.2787117436
 O       -12.8336397950        1.7816867799       -3.9888166496
 C       -11.3024771051        0.1920818388       -4.7864584473
 C       -11.4841731022       -0.7322016417       -3.4906591951
 C       -11.6959214038       -2.1415926799       -4.0347664805
 O       -11.6157804577       -2.4996051203       -5.2009462342
 C       -12.3110900820       -3.2984919564       -2.9877497466
 C       -11.2798748132       -3.3440969868       -1.8339668670
 O       -10.2418065014       -3.8328094573       -2.1885015310
 C       -11.5368691418       -2.8197419438       -0.4201845305
 C       -10.6782718009       -3.4534227966        0.8022513422
 C        -9.5600808236       -2.3135227490        1.2156413618
 O        -9.3296647517       -1.1975017447        0.8293643274
 C        -8.5008519336       -2.8256931827        2.2489199434
 C        -8.9495334763       -2.4868255526        3.7240035555
 O       -10.1593612112       -2.4377099821        4.0447073803
 C        -7.8505491866       -2.2311030140        4.7731147850
 C        -8.4081741358       -4.3776828311        2.3934193002
 C        -7.1510401144       -2.0944087050        1.9298815453
 C       -13.6546894320       -2.6901781738       -2.5996191224
 C       -12.4784667150       -4.6617270938       -3.6807977995
 C       -11.3396460826        4.0718645182       -3.9082791908
 C        -9.3355360163        2.5314438326       -4.0516875371
 C        -8.7457873869        2.7466773359        1.3975951907
 C       -10.5550173684        2.6618326189        3.1626043090
 C        -4.6773262053        7.9440209321        1.2974086216
 C        -5.2264398747        8.4331798365        3.6663121894
 C        -9.4854702882        9.9280788482       -1.0344720447
 C       -10.7583361946       11.7923969839       -0.2145469421
 H       -12.9005714076       10.4351855430        1.4444281885
 H       -13.7340134723        9.1688737506        0.4040821893
 H       -13.2929278723       10.7973411114       -0.3284378181
 H        -9.5472082253       11.3253172418        2.9453693171
 H        -8.3517461483       11.8872208396        1.8293088243
 H        -7.8558856214        9.8533405639        3.8425798830
 H        -6.9619597870       11.3221187525        3.2380393891
 H        -7.8927341717        6.8329997868        3.9471042091
 H        -6.3873843704        6.0495489205        3.6713251469
 H        -7.5869233161        4.2066942680        3.1532086150
 H        -7.6455663161        5.0859681919        1.5445990108
 H       -12.8142322291        2.4875683344        0.9858459305
 H       -11.2477159596        1.6284809468        0.7762452614
 H       -12.9212864183        3.1005405083       -1.2898292268
 H       -12.4578905826        1.4188785997       -1.1053903600
 H       -10.2023780415       -0.0483075637       -5.0266289535
 H       -12.0263333771       -0.2118818020       -5.5266920450
 H       -12.4057431102       -0.4768826764       -2.8796802291
 H       -10.4734171652       -0.5800725758       -2.9999998511
 H       -12.5341919495       -2.9790952601       -0.2662561313
 H       -11.3342391005       -1.7571855896       -0.6216416971
 H       -10.2778681777       -4.4038062423        0.5869898934
 H       -11.3003874689       -3.5627017021        1.6821663164
 H        -8.1099183833       -2.4757209488        5.8067544554
 H        -7.6605851114       -1.1848517675        4.6824600160
 H        -6.7759370466       -2.5492635754        4.5551018773
 H        -9.3375446420       -4.9528081840        2.4695424682
 H        -7.8272778611       -4.5654514638        3.2285500826
 H        -7.9938735235       -4.7615560549        1.4437603778
 H        -6.6721517834       -1.7160621139        2.8644861447
 H        -7.3754433460       -1.0873618496        1.4925686663
 H        -6.4893150496       -2.8090686934        1.4518256169
 H       -13.5543357247       -2.0756240151       -1.6478466296
 H       -14.5170304442       -3.4395254867       -2.3520160316
 H       -14.1038256438       -1.9919454432       -3.2711496608
 H       -13.3234277034       -5.1299584013       -3.1218868507
 H       -11.5931826381       -5.2582199339       -3.7445586432
 H       -12.8144694220       -4.4805505884       -4.6836274075
 H       -12.3202221078        4.2102770488       -3.4759181291
 H       -11.4517106906        4.2520511813       -5.0085369966
 H       -10.8478309465        5.0158934177       -3.5555174795
 H        -9.0928932373        3.0916878170       -5.0321776399
 H        -9.0612320124        1.5418143707       -4.3188512052
 H        -8.6073499000        2.8391962172       -3.2499023383
 H        -9.2274902343        1.8130205663        1.0855087700
 H        -7.9026491201        2.5872296395        2.1541472442
 H        -8.3377207070        3.1089698824        0.4536927982
 H        -9.9919968674        2.9852615322        4.0169640977
 H       -10.3403651830        1.5988686470        2.9979471903
 H       -11.6048567169        2.9886865453        3.2012714238
 H        -4.2484125271        8.8953849838        1.2395904231
 H        -4.9785055844        7.7765791734        0.2269589051
 H        -3.9467032114        7.2041429946        1.7291941686
 H        -6.0226907006        8.6527218839        4.3527063413
 H        -4.5327626310        9.2507720432        3.8733855060
 H        -4.9502372543        7.5127988648        4.0214289788
 H        -9.3429237587        8.8846335826       -0.7836103736
 H        -8.5076715387       10.4084284500       -0.8000143037
 H        -9.6956492910       10.0730516390       -2.1008871630
 H       -11.2111481782       11.9847586911       -1.2476538429
 H        -9.8906248762       12.4202773628       -0.0421598773
 H       -11.5017931871       12.0022537063        0.6449112022
 Na       -9.8991464387        6.9568711502        0.7001625695
