117

 C       -12.6876325540       10.0286961825        0.4359484609
 C       -11.3986593326        9.4894572043       -0.1430581294
 O       -11.4555838182        8.3121021902       -0.4065154062
 C       -10.0788465246       10.3402320821       -0.0314366498
 C        -9.5107878975       10.0936580870        1.4899323486
 O        -9.4826283477        9.0504412088        2.1787278953
 C        -8.5836301771       11.1850739344        2.0909020048
 C        -7.3126094505       10.6782161288        2.7822315411
 C        -6.6307365553        9.8228490125        1.7508727916
 O        -6.4891619632       10.1232020762        0.5898402657
 C        -6.0186703659        8.4346079751        2.2042648906
 C        -7.1680403024        7.4177231413        2.0538958954
 O        -7.5344627481        7.1600689961        0.9412329405
 C        -7.7332141724        6.6619885373        3.1991977319
 C        -7.8642431883        5.1337034717        2.7715764701
 C        -9.3233489948        4.7612632865        2.5001162203
 O       -10.1591934543        5.6004907577        2.7615635265
 C        -9.8158162673        3.3943234767        1.8769920268
 C       -10.9251191128        3.5905039362        0.7561189139
 O       -11.0845586000        4.7037979103        0.2570146376
 C       -11.8248276899        2.4288253855        0.1502520782
 C       -12.0819759009        2.5630147013       -1.3658584668
 C       -10.7686128769        2.6831474445       -2.0540053332
 O        -9.6673123960        2.5571600752       -1.5164114689
 C       -11.0150720043        2.7467154237       -3.6275765909
 C       -11.8852738491        1.5908221705       -4.0605221610
 O       -13.1016863984        1.6653066184       -3.8277543720
 C       -11.0786503628        0.2620075424       -4.3851419143
 C       -11.3213322669       -0.8480330944       -3.2607341255
 C       -11.6998060381       -2.3179480914       -3.8930337073
 O       -11.3786645351       -2.6027228445       -5.0180339480
 C       -12.3325543973       -3.2304963253       -2.8659699787
 C       -11.3112017415       -3.4005872484       -1.6858494582
 O       -10.2986335981       -4.0365308874       -1.7525132037
 C       -11.6509486631       -3.0062619823       -0.2003610590
 C       -10.6589218226       -3.3108348555        0.8041419516
 C        -9.5644674470       -2.1658063277        1.1677945951
 O        -9.4724016426       -1.0246050428        0.7050992594
 C        -8.5818675430       -2.7438746471        2.4050324171
 C        -9.2197691773       -2.4157307676        3.9280335773
 O       -10.3891902293       -2.2245581071        3.9536209880
 C        -8.3472219835       -2.2753703699        5.2014069568
 C        -8.7555738018       -4.3281047333        2.4647193088
 C        -7.0711162213       -2.5175908271        2.2125342231
 C       -13.7634697349       -2.8440444314       -2.3135181843
 C       -12.4821149743       -4.6621321276       -3.7693651839
 C       -11.4453723542        4.0157577723       -4.2832458184
 C        -9.4733484567        2.6632297754       -4.1723138427
 C        -8.6859336602        2.7133228222        1.1527222035
 C       -10.4106124199        2.5825210748        3.1718886864
 C        -4.9459867503        8.0928517361        1.0346801144
 C        -5.3097549211        8.3375757266        3.5135896741
 C        -8.9475471814        9.9942374294       -1.1026133389
 C       -10.3881275756       11.8860809534       -0.0961701835
 H       -12.8999807124       11.0370841992        0.7929661655
 H       -12.9888847368        9.3039404933        1.1438678856
 H       -13.3037047869        9.6927799506       -0.3544614945
 H        -9.2104709244       12.0146130092        2.6421719963
 H        -8.0237958450       11.6827183277        1.2639386232
 H        -7.6100048471       10.2987632745        3.7159991591
 H        -6.6528572378       11.6173872752        2.9399551342
 H        -8.7979564038        7.0291396882        3.4713597411
 H        -7.2011098380        6.8155456190        4.0950665822
 H        -7.4900962187        4.5280766563        3.5819135041
 H        -7.2068953394        4.9445130692        1.9834254388
 H       -12.7568887813        2.2008508180        0.6139945546
 H       -11.2732293436        1.4904443349        0.2421937835
 H       -12.5334897149        3.5859343015       -1.3390399752
 H       -12.7300567639        1.6794660477       -1.7615273848
 H       -10.0366387187        0.4044085564       -4.4114640491
 H       -11.4912665727       -0.2231598552       -5.2961942162
 H       -12.1410684373       -0.4983190312       -2.6626274762
 H       -10.3902981181       -0.9259140578       -2.7495018659
 H       -12.6546194479       -3.5982970623       -0.0039713966
 H       -11.8456164227       -1.9134310333       -0.2709057217
 H       -10.2385652141       -4.3437584699        0.5416905280
 H       -11.2842187022       -3.4212907991        1.7263378728
 H        -8.9875977697       -2.2482680166        6.0850039356
 H        -7.6317913255       -1.4589936927        5.2224695219
 H        -7.6766456366       -3.0219978487        5.2268630712
 H        -9.6726639342       -4.6958159494        2.8809617949
 H        -7.9253765732       -4.6484929946        3.1991233351
 H        -8.6569071552       -4.8167427675        1.5281155495
 H        -6.6770566558       -1.9006553479        3.0049800119
 H        -6.9246493696       -2.0489513824        1.3021396724
 H        -6.6338569484       -3.5108174361        2.3162337386
 H       -13.8836117811       -2.1472540622       -1.5575475159
 H       -14.3203820284       -3.7167130013       -2.0861488580
 H       -14.3400711901       -2.4118922656       -3.2070021210
 H       -12.9668282840       -5.5133685340       -3.2218332497
 H       -11.5412266560       -4.9984204691       -4.1878194198
 H       -13.2306819464       -4.4379420645       -4.5277285895
 H       -12.4460254627        4.4382293316       -3.9805710789
 H       -11.5731299381        3.8420562631       -5.3037756078
 H       -10.8262144326        4.9031105602       -4.1069528519
 H        -9.4114704606        2.0696089285       -5.0020451929
 H        -8.6664289423        2.1008501007       -3.4967439753
 H        -9.0551623143        3.6210311002       -4.4999165393
 H        -8.8862208642        1.8867025991        0.3810291392
 H        -7.9593896662        2.4128109458        1.8310740451
 H        -8.2994661715        3.5219419454        0.5146643568
 H        -9.7532057665        2.5983301406        4.0387495144
 H       -10.3723253271        1.5709747464        2.7089199605
 H       -11.3900872880        2.9310682502        3.3725065888
 H        -4.0749777158        8.7422418294        1.0331140730
 H        -5.4557059222        8.2910804364        0.1795155652
 H        -4.7550587604        7.0525096745        1.0408275582
 H        -5.8130998458        8.6562200202        4.4246749416
 H        -4.6634144734        9.1330250206        3.4080691518
 H        -4.8255932717        7.3752820858        3.8339540719
 H        -7.8998789656       10.2455606545       -0.9376580096
 H        -9.3821765593       10.4027901970       -1.9952602032
 H        -8.9781410894        8.9103216577       -1.2830027598
 H       -10.7420123269       12.0038438323       -1.0721434210
 H        -9.4053234449       12.3172418293       -0.1572103616
 H       -10.9655020344       12.3611648341        0.6645189799
 Na       -9.9079171815        6.8381211511        0.4854987009
