117

 C       -12.5912236768       10.0297270356        0.3922641134
 C       -11.1714904252        9.5191445208       -0.3130002078
 O       -11.1449626310        8.2846371829       -0.4608818436
 C        -9.8952168925       10.4455428998       -0.0726442950
 C        -9.2906565475       10.2968230847        1.3976368863
 O        -9.4951896962        9.2648721602        2.0158430742
 C        -8.4987199857       11.4580314658        2.1353980754
 C        -7.2400221048       10.5949819695        2.6345168823
 C        -6.5072622701        9.8795487660        1.6117382136
 O        -6.0099264389       10.3608414350        0.6300704403
 C        -6.0144910299        8.2286730685        1.9480743841
 C        -7.2520926372        7.3805456941        1.7963230094
 O        -7.7577939551        7.2287649616        0.6954591535
 C        -7.7844361602        6.6391927278        3.1634529543
 C        -8.0091006606        5.1301057413        3.1491362797
 C        -9.3154091531        4.7500605373        2.4550422463
 O       -10.2193529698        5.5086759319        2.5267113056
 C        -9.6343200287        3.2580361632        1.7102021888
 C       -10.6550455351        3.5666877439        0.5050724936
 O       -10.7568445726        4.7447288111        0.0963209300
 C       -11.6094584368        2.5747980787       -0.0383672722
 C       -11.9565253540        3.0065085527       -1.4962908996
 C       -10.7151257302        2.9895810102       -2.2720702208
 O        -9.6257742178        3.1615047332       -1.7534329847
 C       -11.0437278586        2.7930992282       -3.7049276717
 C       -11.8104453406        1.4154696005       -3.9560323781
 O       -13.0725307557        1.3877685769       -3.8852635947
 C       -10.9895524484        0.1032812469       -4.2332461016
 C       -11.4222214850       -0.8657560326       -3.0210725225
 C       -11.6430793809       -2.2865377852       -3.5678713180
 O       -11.2018495437       -2.6818988484       -4.6118602461
 C       -12.2798350983       -3.3927399985       -2.6104448916
 C       -11.4015078918       -3.5946851871       -1.3155230506
 O       -10.5772822982       -4.4730120723       -1.5240310311
 C       -11.5831707173       -2.6301760063       -0.1631455346
 C       -10.8828288902       -3.3144736072        1.0798458564
 C        -9.7279819932       -2.6224651726        1.4837354164
 O        -9.5282438485       -1.4993715372        0.9498533215
 C        -8.9351006778       -3.0648660449        2.6999676386
 C        -9.7044662106       -2.2741156693        3.8924645880
 O       -10.6838376203       -1.6333237463        3.7724408401
 C        -9.0123969967       -2.2625306277        5.2139181736
 C        -8.6686977923       -4.5196241207        2.8977891643
 C        -7.4998037902       -2.3714287338        2.5289419924
 C       -13.8028408049       -3.0267216706       -2.4383106686
 C       -12.3555206798       -4.8165270372       -3.3294624569
 C       -12.0384367389        3.9195316060       -4.2487039944
 C        -9.7677799404        2.9514443480       -4.6369625160
 C        -8.2859848317        2.5248181729        1.1631851743
 C       -10.3072418312        2.4398443933        2.7901807680
 C        -4.9896587641        7.7918185729        0.9095405735
 C        -5.3398183323        8.3785467297        3.2655094482
 C        -8.6756950630        9.9388415277       -0.9843291214
 C       -10.1816448628       11.9546188955       -0.4661353212
 H       -13.3707780253       10.5608945889       -0.3196334772
 H       -12.3395433905       10.7883040499        1.1469821779
 H       -13.1641613711        9.2300171512        0.9619370648
 H        -9.1870577292       11.7485785228        2.9150573672
 H        -8.2791562814       12.3518798411        1.5655660392
 H        -7.6692349332        9.9954287551        3.3751041350
 H        -6.5367068401       11.2699137706        3.2306831463
 H        -8.6472854246        7.1847292259        3.5433418635
 H        -7.1252932486        6.8475318332        4.0101077622
 H        -7.7177126576        4.7114481155        4.1817642929
 H        -7.1066767946        4.7750023718        2.5096050257
 H       -12.4551224226        2.5402109097        0.7162223592
 H       -11.4127078444        1.3991962737       -0.0794154171
 H       -12.2190766782        4.0226559552       -1.4701604328
 H       -12.6048428649        2.3412750129       -1.9934793616
 H        -9.9696406423        0.3978372301       -4.0116403652
 H       -11.1784376849       -0.4334818321       -5.2519484555
 H       -12.2462623296       -0.2742970621       -2.4384723821
 H       -10.5292820268       -1.1124551292       -2.3559505781
 H       -12.6178648343       -2.2725459708       -0.1749593865
 H       -10.8530570977       -1.8577451751       -0.3238370152
 H       -10.6994797612       -4.3497412127        0.9881289921
 H       -11.5301121011       -3.1879111867        1.9112626599
 H        -9.5500702795       -1.5866626493        5.9202594255
 H        -7.9400481926       -1.8211359411        5.2124041408
 H        -8.8335717009       -3.2180065279        5.6250851930
 H        -9.6622136290       -4.9544931518        2.9613777340
 H        -8.0883947504       -4.8036535286        3.7908071120
 H        -8.1286956656       -4.9833076231        2.0641695911
 H        -7.6987903746       -1.3139326308        2.3628227240
 H        -7.0172182990       -2.9882538406        1.7533133439
 H        -6.9481343579       -2.4191688116        3.5092488346
 H       -14.0793308184       -1.9365023882       -2.4992458643
 H       -14.2536836527       -3.4159779669       -1.5444898460
 H       -14.3829466689       -3.5823234472       -3.3146491653
 H       -12.3560044396       -5.5821815265       -2.6114571556
 H       -11.3894055210       -4.9708821500       -3.7661466386
 H       -13.2178439919       -5.0316289797       -3.9443887996
 H       -13.1658404107        3.8567399154       -4.2926568666
 H       -11.8522073162        4.0378246264       -5.3324475218
 H       -11.8443984562        4.8641031597       -3.7534350972
 H        -9.8832031590        2.8531255448       -5.7082050399
 H        -9.0178743253        2.1256388284       -4.3287905941
 H        -9.3109211933        3.9305455181       -4.4914327270
 H        -8.3283860101        1.4215330974        1.1084170887
 H        -7.5608052105        2.6088909255        1.9777468892
 H        -7.9282643358        2.9207313809        0.1704186244
 H        -9.5340882990        1.9004927623        3.3686113141
 H       -10.9334357373        1.7241192874        2.2716979012
 H       -10.8491319036        3.0992943654        3.4680803206
 H        -4.1649389727        8.5965708850        0.8444546114
 H        -5.5207494944        7.6831511595        0.0045129752
 H        -4.6097255456        6.8178655616        1.1830505168
 H        -5.8941952760        8.6615550054        4.1237154448
 H        -4.4554044145        9.0092840319        3.2619562202
 H        -4.9309356010        7.3423078291        3.4271853113
 H        -8.3960962005       10.7607085677       -1.7049019698
 H        -8.8623093161        8.9531578758       -1.3877198840
 H        -7.7568291516        9.8368122957       -0.4276112197
 H       -10.7617873090       11.8872563478       -1.4327423122
 H        -9.2279603259       12.5373886455       -0.7520286704
 H       -10.7269862068       12.3937378080        0.3757512317
 Na       -9.9484502624        6.8688015978        0.5811131148
