117

 C       -12.5796015660       10.3012379976        0.0546132977
 C       -11.3217797673        9.6726071020       -0.4160075095
 O       -11.3345760683        8.5207098922       -0.8257267740
 C        -9.7135669394       10.4109726730       -0.2880901333
 C        -9.1378832789       10.1453109110        1.1884449756
 O        -9.6658028831        9.2209728182        1.7878113256
 C        -8.0789789446       11.1813642287        1.6272913029
 C        -7.2765366243       10.2954025332        2.5730175642
 C        -6.0312226699        9.7488191152        1.7505054157
 O        -5.4439730698       10.3551060059        0.8977686485
 C        -5.6151417297        8.2216230363        2.0003211840
 C        -6.9056208436        7.4733703849        1.8769677001
 O        -7.6639526224        7.4729433648        0.9347603465
 C        -7.4579181154        6.7735728341        3.1611532826
 C        -7.7845610839        5.3333156772        2.8303330770
 C        -9.2328906767        4.8954845427        2.4501690995
 O       -10.1638468377        5.4832573591        2.8916903720
 C        -9.5916909610        3.5965305894        1.6745884904
 C       -10.4889169547        3.8905030057        0.3708454386
 O       -10.4637448904        5.0286732584       -0.1230233999
 C       -11.2113751654        2.7773281621       -0.1567963109
 C       -11.8555145403        3.0063000743       -1.6355181010
 C       -10.7097856628        3.0546865497       -2.7102526993
 O        -9.5634128828        3.1742149531       -2.3979831666
 C       -11.3411286900        2.7733666235       -4.2039451932
 C       -11.9832346881        1.2430029449       -4.0291467739
 O       -13.2069439421        1.0815867045       -4.1251730345
 C       -10.9579120837        0.1139493652       -3.8660635583
 C       -11.7365581677       -1.0598719763       -3.0061728868
 C       -11.4572041061       -2.5068000959       -3.3786040762
 O       -10.8412166355       -2.7391230803       -4.4186032042
 C       -12.2780480055       -3.5837234867       -2.4687310605
 C       -11.6124684881       -3.9568262157       -1.0988674634
 O       -10.8797376882       -4.8883759250       -0.9069531954
 C       -11.9801025440       -2.9754134331        0.0612634504
 C       -11.0867732860       -3.2900648751        1.3618462013
 C        -9.7673408404       -2.6192372343        1.6218739590
 O        -9.1529248902       -1.8894792132        0.8475526457
 C        -9.2350779609       -2.7378389596        3.1447079276
 C       -10.1583641865       -2.0363311482        4.2277457358
 O       -10.8484817091       -1.0843923216        3.9909264177
 C        -9.8280623103       -2.5500008641        5.5389435372
 C        -9.3079799058       -4.2354550414        3.4431188751
 C        -7.7673756170       -2.2911670379        3.2752903495
 C       -13.6775988682       -3.0424556467       -2.4860851279
 C       -12.1767901648       -4.8489537532       -3.1906511770
 C       -12.5466738105        3.5391110452       -4.5433557828
 C       -10.2038576739        2.9497450498       -5.2617818544
 C        -8.2333535606        2.9463981844        1.1586378363
 C       -10.1983654666        2.6022945325        2.6771815458
 C        -4.7407942848        7.6730955244        0.7709042877
 C        -4.7690842910        8.0123527431        3.2907547156
 C        -8.9255043041        9.8159968565       -1.3996023024
 C        -9.8329669964       11.9653676311       -0.5441698857
 H       -13.3436735323        9.4953792439       -0.1569896938
 H       -12.8653432113       11.2883537598       -0.5577783647
 H       -12.6007991401       10.5144716759        1.1113762272
 H        -8.4825836122       12.0913762228        2.0362051792
 H        -7.5612039633       11.5166176569        0.7799350703
 H        -7.8475285852        9.5573322780        3.0360004958
 H        -7.0133406272       10.9477696667        3.4638498619
 H        -8.3598150207        7.2354533984        3.5591466618
 H        -6.7677957249        6.8352345431        3.9764002890
 H        -7.4965092512        4.7290459282        3.7836057808
 H        -6.9671778068        5.0213831258        2.1407190005
 H       -11.9938488726        2.2319340015        0.4672404649
 H       -10.5372779740        1.8611421148       -0.1399750239
 H       -12.3277622466        3.9373165171       -1.6934079430
 H       -12.5025546361        2.1871196800       -1.8829308576
 H       -10.0994317978        0.5820711092       -3.4313775763
 H       -10.7373302875       -0.4482533615       -4.8528274862
 H       -12.8382753684       -0.9696164107       -3.2086993612
 H       -11.6705959704       -0.9012399208       -1.9348806812
 H       -12.9893622692       -3.1779316675        0.4343918600
 H       -11.9067001888       -1.9671325031       -0.2798825064
 H       -11.2495078241       -4.3407351080        1.4585369458
 H       -11.7630574825       -2.8597089774        2.0472947767
 H       -10.2202128038       -1.9110759374        6.4126892060
 H        -8.7237577658       -2.5192399756        5.7900628020
 H       -10.1860036881       -3.5536238613        5.6100399490
 H       -10.3115331201       -4.5291993747        3.6804352762
 H        -8.5846509326       -4.4918280137        4.2604921364
 H        -8.8383846364       -4.8384392593        2.7061169086
 H        -7.3891752320       -2.2725247495        2.2242419878
 H        -7.3703289112       -2.8308451111        4.0819774835
 H        -7.8053211146       -1.1502924920        3.5681652488
 H       -13.8086691786       -2.1233019768       -1.9854158688
 H       -14.4130361389       -3.7524855735       -2.0394181278
 H       -13.8924292961       -2.8791997955       -3.5818197758
 H       -13.2101055381       -5.2927539983       -3.3876812393
 H       -11.6591154400       -5.6700265422       -2.6316957952
 H       -11.6788920697       -4.6759160312       -4.1516643841
 H       -13.3621088248        3.4879691344       -3.7658475034
 H       -13.0179741030        3.1161475898       -5.3967635804
 H       -12.2882712600        4.5857433788       -4.8129993232
 H       -10.5512192621        2.8753109197       -6.2186854431
 H        -9.2943120763        2.2954377200       -4.9384035109
 H        -9.8675311022        3.9930863024       -5.2501654447
 H        -8.2951349363        2.0630126234        0.4128716900
 H        -7.5586247895        2.6048002232        1.8719137665
 H        -7.8151700665        3.7441549241        0.5888321657
 H        -9.9187029947        2.8133708316        3.7342712934
 H       -10.0068661837        1.5214356042        2.3392132767
 H       -11.2539580566        2.7779409388        2.7029908060
 H        -3.8950627438        8.3500303274        0.8890601655
 H        -5.4160916919        7.9623260799       -0.0904788425
 H        -4.2915508079        6.6056844666        0.6481660378
 H        -5.1669082319        8.4555684973        4.2162830229
 H        -3.7948358580        8.3558407279        3.1019573232
 H        -4.4516307047        6.9183400161        3.4174378680
 H        -9.6089439260        9.1558667736       -1.9476927868
 H        -7.9879581694        9.3419913223       -1.1045806157
 H        -8.7144440470       10.5874417136       -2.1463076622
 H       -10.3890323490       12.0008163868       -1.5153154135
 H        -8.8399411050       12.2499431898       -0.7582200721
 H       -10.3393069366       12.6893690369        0.1942847713
 Na      -10.1310014923        7.0439291068        0.9182280235
