117

 C       -12.4660745575       10.4834821229       -0.0443076372
 C       -11.2913120019        9.6773169976       -0.4689114573
 O       -11.2455751345        8.5192288889       -0.7195016059
 C        -9.9349591164       10.3779316818       -0.4940591600
 C        -9.3207762978       10.1633443074        1.0345682167
 O        -9.5873145274        9.2915637778        1.9157342304
 C        -8.0484891600       10.9670421056        1.5089807772
 C        -7.0445740484       10.1863911153        2.5541547965
 C        -5.9043003133        9.6798497505        1.7587435169
 O        -5.3443374931       10.4365912049        0.9886756120
 C        -5.5473315145        8.1804561136        1.9270310107
 C        -6.9138452121        7.4327065140        1.9359258004
 O        -7.5802320405        7.6906361316        0.9576077256
 C        -7.5051609849        6.6443769978        3.2189458462
 C        -7.7274466711        5.1449035435        3.0273038926
 C        -9.1344774704        4.9045760059        2.4285006935
 O       -10.0735771266        5.6031846842        2.8710573883
 C        -9.4840211162        3.6806939452        1.5730938124
 C       -10.4222467809        3.8778748936        0.3613134124
 O       -10.6113241152        5.0107538325       -0.0478707010
 C       -11.2216202272        2.6943153544       -0.2306798121
 C       -11.7731501078        3.1803904891       -1.6062956498
 C       -10.8128667107        2.9894988218       -2.7762358346
 O        -9.6039664819        3.1407162618       -2.7612913015
 C       -11.4521178825        2.6839383837       -4.1780871131
 C       -11.9347956916        1.1844171668       -4.1491542108
 O       -13.1031724100        1.1186742284       -4.2518396343
 C       -11.0477744242        0.0108125308       -3.8080357538
 C       -11.7560346693       -0.9978214336       -2.9087386417
 C       -11.4658804019       -2.4685407170       -3.2586461237
 O       -10.7011238739       -2.7884816995       -4.1132383819
 C       -12.2147952916       -3.6418679805       -2.5482472042
 C       -11.6269930622       -3.8730837615       -1.0861511026
 O       -10.9702098813       -4.8694991014       -0.8507444640
 C       -11.9461263881       -2.8621770236        0.1430220781
 C       -11.1941560143       -3.3064069713        1.4751335541
 C        -9.9090910842       -2.4541183790        1.6922271016
 O        -9.2016791825       -2.0547573122        0.8127889018
 C        -9.3780695613       -2.7533667929        3.1733164522
 C       -10.1773708772       -1.9819017863        4.2887718856
 O       -10.8602790533       -0.9864427948        3.9562566954
 C       -10.0727042249       -2.5298186694        5.7238097423
 C        -9.3997806877       -4.2940658435        3.4235143533
 C        -7.8769173915       -2.1905876111        3.3840861602
 C       -13.6925281590       -3.1205097255       -2.3780072675
 C       -12.0139776996       -5.0685705951       -3.3388488576
 C       -12.6364600082        3.6038931453       -4.5339045817
 C       -10.3215185660        2.6743950778       -5.2439358855
 C        -8.1059377058        2.9923540552        1.0858908798
 C       -10.2515901530        2.7619296324        2.5837930311
 C        -4.6167764082        7.7347240425        0.6853837509
 C        -4.7280953732        8.0077167813        3.2601788332
 C        -8.9089610631        9.7064249656       -1.5518196858
 C        -9.9294082744       11.9768195089       -0.5845760389
 H       -13.3743257748        9.8609044088        0.2192142747
 H       -12.6496257937       11.1862984642       -0.9022035458
 H       -12.2315596775       11.1849207754        0.8597443730
 H        -8.6411850093       11.5372237731        2.2771842445
 H        -7.5676242063       11.6806430423        0.9001682712
 H        -7.4811127621        9.5364954508        3.3488179585
 H        -6.7060346889       11.0643055841        3.1267659557
 H        -8.5617030950        6.9669598156        3.5042676812
 H        -6.8961030837        6.8797915119        4.0354593881
 H        -7.6956931337        4.6599236825        4.0924263254
 H        -6.8403218429        4.6879115097        2.5385474112
 H       -12.1137823309        2.3594454816        0.4645270103
 H       -10.8288547874        1.7223659889       -0.2732942922
 H       -11.9022184214        4.2528994760       -1.6177974752
 H       -12.7069531253        2.6654720261       -1.8953956322
 H       -10.1039887136        0.4467854504       -3.4301090227
 H       -10.8833263228       -0.8072028607       -4.5915698917
 H       -12.8663572728       -0.8913720893       -2.7330181702
 H       -11.3561832466       -0.9081459040       -1.7961814507
 H       -13.0695980089       -2.9530387862        0.2183021869
 H       -11.6716608672       -1.8498736330       -0.1304891162
 H       -10.7953783483       -4.2124312791        1.0680868826
 H       -11.8788576407       -3.6681208025        2.1918051754
 H       -10.3458603737       -1.7732476953        6.4711802291
 H        -9.1108407140       -2.8123843891        6.1011848739
 H       -10.8099135320       -3.4141519720        5.8007220738
 H       -10.4425386647       -4.5835511750        3.4947162713
 H        -8.8592245867       -4.6041971154        4.3531779665
 H        -8.8705309492       -4.8530706377        2.7000045731
 H        -7.1947555907       -2.6610668014        2.6204158654
 H        -7.8246755763       -2.3416390669        4.4660236372
 H        -7.8463654403       -1.1090362492        3.2453523799
 H       -13.6926053862       -2.2505265649       -1.6587062224
 H       -14.3984725267       -3.9102428941       -1.8486217906
 H       -14.0773272134       -2.7762825637       -3.3091321447
 H       -13.0293419806       -5.5223490327       -3.5435370068
 H       -11.6850677553       -5.7545865786       -2.5691684264
 H       -11.3142807671       -5.0913715982       -4.1384649592
 H       -13.4823510745        3.4401531741       -3.8298545485
 H       -13.0447852410        3.3828808680       -5.5265789808
 H       -12.3526890184        4.7155767228       -4.6254355874
 H       -10.8344153343        2.0665712531       -6.0735958609
 H        -9.4016997316        2.3102247224       -4.8751435856
 H       -10.2041550651        3.6562695454       -5.7692067706
 H        -8.2529195617        1.9348501344        0.8260720515
 H        -7.3553374250        2.9303236811        1.9401498133
 H        -7.5879159502        3.4684559070        0.2318490424
 H        -9.8796952814        2.5494634211        3.5791596683
 H       -10.6714858146        1.8556281073        2.0844536219
 H       -11.0736883631        3.4475673395        2.7359732446
 H        -3.6848206127        8.1921709251        0.8268242942
 H        -5.1874255707        7.9100496694       -0.2690901685
 H        -4.4155298659        6.6383591932        0.7585733656
 H        -5.2971418434        8.3154862602        4.1430765644
 H        -3.7872739723        8.5197286659        3.2075324508
 H        -4.3758675952        6.9965940842        3.3748587858
 H        -9.1759677291        8.7169590112       -1.8458024700
 H        -7.9171882593        9.7846210792       -1.0374023378
 H        -8.8459152976       10.3294515835       -2.4737383775
 H       -10.8385602543       12.1392697006       -1.2492364610
 H        -9.0094375535       12.1908855402       -1.1447604818
 H       -10.0796190925       12.6513985607        0.3431161994
 Na      -10.1138022168        7.1643123031        0.8858324756
