117

 C        -8.8006281952        9.2959992868       -2.2905507061
 C        -8.4282753975        9.8031045106       -0.9310785237
 O        -9.2518577960       10.0024977094       -0.0837552701
 C        -6.9446470125       10.4156780679       -0.5886373710
 C        -5.8981333757        9.3031829824       -1.2506469331
 O        -5.6843722211        9.2092277016       -2.4374067212
 C        -5.0179465036        8.3548928550       -0.4025431610
 C        -4.8839600340        7.0698688900       -1.1089030742
 C        -6.1478337423        6.1852353788       -0.9605402337
 O        -7.2547498388        6.5388560194       -0.5473700239
 C        -6.0176127263        4.6404910651       -1.3584014902
 C        -5.8080030111        3.8602603636        0.0311196643
 O        -4.8669405573        4.0334383407        0.7095679860
 C        -6.9797915061        2.9542750684        0.4916885636
 C        -6.6489332019        2.1321244733        1.6929010561
 C        -7.5330295709        0.9380556545        2.0162139041
 O        -8.4131406328        0.4827407233        1.3000161601
 C        -7.2628109190        0.3558207263        3.4058876260
 C        -8.4252249395        0.8969887830        4.3611240373
 O        -8.1406766753        1.6282326861        5.3005577729
 C        -9.9536661273        0.4926284066        4.1251006614
 C       -10.9615819873        1.7301175845        4.2577002333
 C       -11.0838201359        2.7146479251        3.0687289774
 O       -10.2268388756        2.7338922432        2.2066744084
 C       -12.3150411806        3.5403838483        2.8774431752
 C       -13.0731316781        3.0794597652        1.5179017087
 O       -12.5061390029        2.3382521808        0.7640969818
 C       -14.6162657047        3.2406884393        1.4974691278
 C       -15.2630680130        2.8666114862        0.1564550292
 C       -14.9230938472        3.7560722340       -0.9617276938
 O       -14.5104560940        4.8840499587       -0.7155800012
 C       -14.9669828281        3.3482462088       -2.5414788899
 C       -13.5275996890        2.7100154297       -2.8593525290
 O       -13.5938588655        1.4305726705       -2.9036731753
 C       -12.3009645131        3.4854732126       -3.0929290865
 C       -11.1979132927        2.4411750295       -3.6339226131
 C       -10.6433046153        1.6095106387       -2.5010116323
 O       -10.2839367385        2.2550328669       -1.5440182770
 C       -10.5583950645        0.0639843948       -2.6528490098
 C       -11.6806456868       -0.6166377002       -1.4985828215
 O       -11.4653105966       -0.4757647536       -0.3286874877
 C       -12.8867328661       -1.4214263591       -2.1130960708
 C       -10.7894556004       -0.4634838380       -4.0611748884
 C        -9.1662261617       -0.3856608098       -2.0346638172
 C       -16.0078920092        2.2764861224       -2.7007474800
 C       -15.2500082485        4.6352073931       -3.3180267441
 C       -13.2782093592        3.3572800330        4.1547995182
 C       -11.8996969236        5.0074741940        2.7328934950
 C        -7.1587138019       -1.1879740892        3.5096419952
 C        -5.9076280524        0.8743458548        4.1073837555
 C        -7.3341133643        4.3181353453       -2.0717260447
 C        -4.8093859857        4.3067687967       -2.2690961909
 C        -6.9200510902       11.7954101643       -1.2776732772
 C        -6.7453437362       10.5714624727        0.8955258338
 H        -9.6323882206        8.5617399388       -2.2163129431
 H        -7.8862943695        8.7399033342       -2.6549758844
 H        -9.0225476020       10.1946667905       -2.9747946912
 H        -5.2088980583        8.1901442781        0.7195422905
 H        -3.9310797681        8.8288072030       -0.3192641185
 H        -4.0997676072        6.4946978417       -0.6190486084
 H        -4.4979998385        7.2062279450       -2.1536895097
 H        -7.3085664552        2.2816152849       -0.2786541327
 H        -7.8412556470        3.6162290298        0.5773572080
 H        -6.4524096339        2.8092429182        2.5025309363
 H        -5.7288153383        1.6208672996        1.4276822562
 H       -10.1769645281       -0.2502608586        4.9731898210
 H        -9.9520585456       -0.1904281343        3.2840202718
 H       -10.6891947834        2.3440928733        5.1132147995
 H       -12.0259429939        1.4803638575        4.6351303813
 H       -14.8249381035        4.2523647520        1.7471237569
 H       -14.9467736940        2.5989769735        2.2968186874
 H       -16.4019252835        2.8670612441        0.2910482222
 H       -14.9509506853        1.8585754221       -0.3076756720
 H       -11.8760536122        3.9551221521       -2.1694666336
 H       -12.6605692509        4.2258631695       -3.7922972626
 H       -10.4085670072        3.1458593122       -4.0746217688
 H       -11.5939725242        1.9458101097       -4.5408962451
 H       -13.1638561013       -2.0458164609       -1.2931575576
 H       -12.5876821169       -2.0225213860       -2.9743457674
 H       -13.5825186485       -0.6355982866       -2.4524725313
 H        -9.9399006818       -0.1513066861       -4.5925220568
 H       -11.7609963937       -0.2755575489       -4.5267769031
 H       -10.9456400155       -1.5732440201       -4.0502483399
 H        -9.0510922670       -0.1666224508       -0.9687248013
 H        -8.2887609663        0.0332314462       -2.5626699365
 H        -9.1470557405       -1.4935246930       -2.0638985573
 H       -15.7623037657        1.3662445453       -2.0972162546
 H       -16.0573270231        1.9246951943       -3.7071024595
 H       -16.9547666207        2.5358481826       -2.3935776207
 H       -15.9443119209        4.4910734268       -4.1102126186
 H       -14.3416433119        5.0173728632       -3.8273071270
 H       -15.6353688126        5.3789582279       -2.7393584121
 H       -12.8902837098        3.4753660512        5.1205195301
 H       -13.7537020176        2.4099305823        4.1211783217
 H       -14.1560363990        3.9679107465        3.9820384390
 H       -11.3519361020        5.3970375040        3.5838634492
 H       -12.7500374078        5.6734676870        2.4954377094
 H       -11.2570945839        5.0127257661        1.9029924602
 H        -7.0133119548       -1.6815939373        4.4881977678
 H        -6.2662544167       -1.4444143519        2.9137653640
 H        -8.0413248330       -1.6749269382        3.1291866960
 H        -5.0598333870        0.9111471237        3.4234678630
 H        -5.5594083795        0.1694285763        4.8999495783
 H        -6.1407811635        1.8403021451        4.4849025157
 H        -8.2330051680        4.4069163303       -1.4264963075
 H        -7.2912365705        3.3303259583       -2.4949518473
 H        -7.4419136924        5.0678497100       -2.9035319394
 H        -4.5887632840        5.1009752421       -3.0343870762
 H        -4.9381075605        3.3148239377       -2.7201510541
 H        -3.8730916746        4.2486883406       -1.6482214685
 H        -5.8933025987       11.8955644363       -1.5559058868
 H        -7.1363140512       12.5647612402       -0.5698750391
 H        -7.7178240166       11.7108693150       -2.0129425850
 H        -6.6680648547        9.5752473125        1.3020683207
 H        -7.4851209679       11.2069115958        1.3815455111
 H        -5.7968342704       11.0835018854        1.0328055939
 Na      -10.3583169040        1.2969424765        0.4378563824
