117

 C       -12.1446917192       11.1213464380       -1.3432658283
 C       -11.1418115298       10.1946904877       -0.4766137925
 O       -11.4161754302        9.0509943393       -0.1527700511
 C        -9.4929659732       10.5437334739       -0.4382171404
 C        -8.7633862481       10.3759998212        0.9274421895
 O        -8.9695479322        9.3236346618        1.4750489010
 C        -7.4800376842       11.2445288373        1.1693569784
 C        -6.4122948535       10.6998322162        2.0180827720
 C        -5.4301782045        9.7344185788        1.2252528409
 O        -4.8270755076       10.0389229041        0.2256714640
 C        -5.3232365761        8.2273956971        1.8452765246
 C        -6.5109444784        7.3504031086        1.6740200671
 O        -7.2715706197        7.3914247429        0.7350951236
 C        -6.8192732847        6.2104780184        2.7815788982
 C        -7.2911637785        4.9896889757        1.9381730485
 C        -8.8278202777        4.7736811127        2.1612159894
 O        -9.4776752618        5.6536196470        2.7094757474
 C        -9.3908458794        3.5907958404        1.3870916880
 C        -9.6122406286        4.2096229724       -0.1338885794
 O        -9.7361832671        5.4245297758       -0.2816619531
 C        -9.8183968136        3.2775477194       -1.5191849433
 C       -10.8457035007        3.6063203676       -2.5801399293
 C       -10.6708401443        2.5981452495       -3.6476201071
 O        -9.5326524839        2.3132989415       -4.0253156639
 C       -11.9312591944        2.1140811666       -4.4815653811
 C       -12.5473937148        0.7840322856       -3.8950637227
 O       -13.7669748242        0.6780862480       -3.7079182362
 C       -11.5695236324       -0.3448421635       -3.6048107693
 C       -12.1878146821       -1.6899906545       -3.7332553980
 C       -11.6392932194       -2.5418542253       -2.3739957381
 O       -10.9166169596       -1.9026191283       -1.6688931868
 C       -12.0116961737       -3.9696368876       -2.0878983748
 C       -11.6842026642       -4.3544858481       -0.5878885541
 O       -11.6518904464       -5.5437305898       -0.3686991444
 C       -11.5211029005       -3.2288554649        0.4866874623
 C       -11.6460180195       -3.5013907483        1.9161894866
 C       -10.5774273910       -2.5970438854        2.6450882240
 O        -9.8961983378       -1.8232906557        1.9757736696
 C       -10.3369468297       -2.4593809417        4.1971248956
 C       -11.2754190651       -1.3518128061        4.6722846992
 O       -10.8714626554       -0.1975751119        4.9751932830
 C       -12.6584561443       -1.7966090213        5.1395768434
 C       -10.3804771098       -3.7459017196        4.9827087987
 C        -8.8661844579       -1.9369182522        4.3556921272
 C       -13.4558582396       -4.2044841913       -2.3969354808
 C       -10.9953824721       -4.8203544959       -2.9520750682
 C       -12.9664900510        3.2252913549       -4.7328975311
 C       -11.2939941977        1.7727446689       -5.9356166872
 C        -8.4778674694        2.4955589336        1.5598573213
 C       -10.8929041701        3.2877011769        1.8653526036
 C        -4.3072969161        7.4039957243        0.9184671979
 C        -4.7223961840        8.2678237886        3.3380466782
 C        -8.7077497831        9.5735595975       -1.4644062370
 C        -9.2593764601       12.1479077543       -0.9957387766
 H       -13.0201862705       10.5838648150       -1.0975186059
 H       -11.9419892447       11.1965238832       -2.3673809116
 H       -12.2298186121       12.0207106774       -0.8695483723
 H        -7.7482927169       12.2656240509        1.6944504960
 H        -7.3292731778       11.4997208403        0.1434032765
 H        -6.9002949109       10.0934447317        2.8317928682
 H        -5.7444048383       11.5058968725        2.4082562842
 H        -7.7854106301        6.7180557162        3.1320208377
 H        -6.0443319252        5.9888277273        3.5074387679
 H        -6.6568904847        4.2021128563        2.1153052500
 H        -7.1167380821        5.3061863917        0.9726172570
 H       -10.1528830131        2.1938478731       -1.1501987019
 H        -8.8613303184        3.2458184675       -1.9270682674
 H       -10.7396020911        4.6635205923       -2.9644852650
 H       -11.9347957516        3.5596331457       -2.2378640951
 H       -11.1675265142       -0.1388519726       -2.6524258684
 H       -10.6615755962       -0.1953019441       -4.2047277033
 H       -11.9426853239       -2.1873131303       -4.6249914250
 H       -13.2931607770       -1.6740048343       -3.5844335247
 H       -12.3427213858       -2.4960147046        0.1474050109
 H       -10.6971272808       -2.5282845627        0.4427503545
 H       -11.1782880369       -4.5467954557        2.0172627260
 H       -12.5756394086       -3.8066916233        2.4531058511
 H       -13.1853046285       -0.8914305150        5.0473997879
 H       -12.7508212410       -2.2126301157        6.1055555820
 H       -13.1644016683       -2.5158414535        4.4158071843
 H       -11.2744981629       -4.3701028032        4.8907202892
 H       -10.1317728318       -3.5381209451        6.0424118434
 H        -9.5289319661       -4.3041287328        4.6809643902
 H        -8.2810104361       -2.5749823159        3.7513347612
 H        -8.4456518792       -2.1751539679        5.3862114597
 H        -8.8594860604       -0.9985661444        3.9814525722
 H       -14.0535335921       -3.7146443854       -1.5326535444
 H       -13.6970766534       -5.2160316793       -2.4627182456
 H       -13.8075106785       -3.6915254109       -3.2947272740
 H       -10.4888619843       -5.4261333824       -2.2807178100
 H       -10.4129326528       -4.2327917915       -3.6541916226
 H       -11.6080506221       -5.5940786818       -3.4926126681
 H       -13.5069625451        3.4515917976       -3.8475971156
 H       -13.7934863395        2.8300985763       -5.4437419502
 H       -12.3858525833        4.1580656453       -4.9730216281
 H       -12.1367615757        1.3505057330       -6.5407419106
 H       -10.3716081353        1.2348353693       -5.9230521258
 H       -11.1700684802        2.7786151823       -6.2148694044
 H        -8.7664406949        1.5844947847        1.2418776697
 H        -8.3296092302        2.2941444354        2.6777967099
 H        -7.5141090211        2.6885211734        1.0659577369
 H       -10.9524425842        2.8601786762        2.8543957605
 H       -11.3866268898        2.6246324125        1.2469244485
 H       -11.4980390231        4.2055332016        2.0195309704
 H        -3.4117619172        8.0211520222        0.6772931943
 H        -4.7328376671        7.0552161209        0.0734233034
 H        -4.0278138308        6.5986059681        1.4403291854
 H        -5.4656992743        8.6552696045        4.0056610289
 H        -3.8257735852        8.9107361305        3.3339857079
 H        -4.3252037823        7.3891351729        3.6174374002
 H        -7.6536517258        9.4296369868       -1.3970814320
 H        -8.9706269289        9.7534566519       -2.5171855221
 H        -9.1166205072        8.5956613876       -1.2188200482
 H        -9.7015686488       12.3330582967       -1.9442222323
 H        -8.1349850717       12.2909398049       -1.1512418010
 H        -9.6493189661       12.9180661973       -0.3743780173
 Na       -9.9882794780        7.3699619594        1.0304224315
