117

 C       -12.0210006868       11.0663206241       -1.1423723856
 C       -10.9674908225       10.1401986083       -0.6555445341
 O       -11.2244274248        9.1520028570       -0.1033978471
 C        -9.4951895964       10.5202953945       -0.6184509074
 C        -8.7496332444       10.3816959090        0.7825869908
 O        -9.0610599698        9.5137562672        1.6100688062
 C        -7.6023710651       11.3484392617        1.1954158164
 C        -6.3326368636       10.7426484652        1.9819213030
 C        -5.4553294028        9.6236824307        1.1898818739
 O        -4.9799173888        9.8281608584        0.1487641421
 C        -5.2392929812        8.2219039222        1.8053937809
 C        -6.5619308614        7.4031055209        1.6109728684
 O        -7.2774795695        7.4457351157        0.6083206939
 C        -6.7816561820        6.2006901257        2.5918121733
 C        -7.2313082508        4.8701249294        2.0273841110
 C        -8.7886485524        4.8718021599        2.0728586382
 O        -9.3950305219        5.7106171608        2.7541753269
 C        -9.5363156728        3.5517761780        1.2865219511
 C        -9.7000121226        4.1359258241       -0.3152335487
 O        -9.6871581266        5.2990383728       -0.4934273142
 C        -9.6432880618        3.2966117971       -1.5376490360
 C       -10.8288314503        3.6453481700       -2.5775180678
 C       -10.6022941851        2.6680241345       -3.7224810645
 O        -9.4962483322        2.1668729931       -3.9973977988
 C       -11.9028873185        2.1025446283       -4.5659824046
 C       -12.4417714388        0.8007210756       -3.8931373089
 O       -13.6103204131        0.7030054399       -3.6397492135
 C       -11.4648272151       -0.2864881442       -3.7584797200
 C       -12.2551513405       -1.6285512533       -3.6027472044
 C       -11.6579653704       -2.3804778704       -2.3634196131
 O       -10.8754654239       -1.7104833318       -1.6896195803
 C       -11.9600249209       -3.9129140427       -2.0470943516
 C       -11.8276322682       -4.4395334185       -0.4547945116
 O       -11.7024354045       -5.5951452573       -0.2131069025
 C       -11.6602849097       -3.3900169241        0.5238328998
 C       -11.3993819665       -3.5898445252        2.0229843954
 C       -10.5609398769       -2.5230186887        2.6628315914
 O        -9.9760568393       -1.7441103879        1.9467245590
 C       -10.3804540486       -2.4380966597        4.2974245260
 C       -11.3733767215       -1.3317787116        4.8619900770
 O       -10.9380877486       -0.2694388650        5.1298690144
 C       -12.9082954238       -1.6754718385        5.0249841487
 C       -10.6806891159       -3.7125408668        5.1136045790
 C        -8.9308151877       -1.8604628820        4.5253048113
 C       -13.5401739611       -4.3401353233       -2.3316418136
 C       -10.8528116803       -4.6783400114       -2.8871076541
 C       -13.0446349175        3.0530981595       -4.5506253332
 C       -11.5871814811        1.6947259506       -6.0376061849
 C        -8.5781548258        2.3303309295        1.6249149183
 C       -10.9922454293        3.3012691258        1.7367443859
 C        -4.1471415092        7.4227308001        1.0192186623
 C        -4.7870284334        8.2745713537        3.2871867213
 C        -8.5976165918        9.6450016459       -1.3869680051
 C        -9.3334592923       12.0674803486       -1.1117396831
 H       -12.8337604684       10.4591083406       -0.9507203576
 H       -11.9415601378       11.2943046919       -2.2306695353
 H       -11.9629804101       11.9408911930       -0.5619084595
 H        -7.9817990742       12.1479612491        1.8159168255
 H        -7.3817325384       11.8195975100        0.2112666013
 H        -6.6394473955       10.3727092661        2.9999109505
 H        -5.6596308478       11.5376665252        2.0449014260
 H        -7.2907057276        6.5116684441        3.4906623393
 H        -5.6991263840        5.9898204932        2.6216974571
 H        -6.7812961519        4.1225074055        2.6104798223
 H        -6.7504226459        4.8261656098        1.0497565485
 H        -9.6298699144        2.2721221976       -1.2490646720
 H        -8.6360407679        3.5871888972       -2.0992268091
 H       -10.5989886505        4.6782129737       -2.9905299442
 H       -11.8773953869        3.7313346357       -2.2551972330
 H       -10.7736155224        0.0579799356       -3.0495071004
 H       -10.8553409896       -0.2990458823       -4.6180516990
 H       -12.0287566107       -2.2362194040       -4.4329521505
 H       -13.2891358047       -1.5076911897       -3.3651822496
 H       -12.3903134034       -2.5915760800        0.3465380636
 H       -10.7886251983       -2.8076935108        0.1660935179
 H       -11.2562072277       -4.6745857158        2.3904897451
 H       -12.3379117661       -3.4439643872        2.7022745009
 H       -13.5220224288       -0.7802404803        5.1253378595
 H       -13.0082640929       -2.3260769066        5.8775873715
 H       -13.2272582739       -2.2810648164        4.2765798411
 H       -11.7447924812       -3.9350652216        5.2103907359
 H       -10.2956299388       -3.4706269209        6.0514927375
 H       -10.0537281850       -4.5995298189        4.9462106508
 H        -8.2537379686       -2.6593641829        4.5067534775
 H        -8.8810475681       -1.4803289568        5.5166680965
 H        -8.7146188909       -1.1866101635        3.6961472405
 H       -14.1262625504       -4.0646258376       -1.5123893470
 H       -13.6353914345       -5.3856587967       -2.3799508593
 H       -14.0058797399       -3.8593582348       -3.2049741208
 H       -10.3851667703       -5.4603519096       -2.3397579709
 H       -10.3307372270       -3.9457930523       -3.4316743661
 H       -11.4207754232       -5.2749291797       -3.6487696097
 H       -13.0860944333        3.3917287594       -3.5240585442
 H       -14.0694223729        2.7160157173       -4.8562546685
 H       -12.6111255398        3.9196014724       -4.9582857197
 H       -12.5188932758        1.6027126219       -6.4653150949
 H       -10.8555762044        0.7908212421       -6.0634922839
 H       -11.0664120648        2.5481837783       -6.3829333537
 H        -9.0298637898        1.3722611054        1.2353260893
 H        -8.5843311538        2.0732329029        2.6576479096
 H        -7.5775498005        2.4158841062        1.2674977857
 H       -11.0926748734        3.1134942961        2.8172214776
 H       -11.3940310447        2.4366267594        1.2724480794
 H       -11.6953244430        4.1392166554        1.6415213586
 H        -3.2875712143        8.0263263846        0.9956682416
 H        -4.4999326018        7.2935631636       -0.0041431460
 H        -3.8790904823        6.4305729128        1.4081778560
 H        -5.6784381211        8.4619774812        3.8106315892
 H        -3.9775373592        8.9673265049        3.5086561227
 H        -4.3023470243        7.3506597534        3.5432472304
 H        -7.5639953258        9.8529759595       -0.9791240532
 H        -8.5173408374        9.6873569126       -2.4640879974
 H        -8.7096429477        8.6244648752       -1.0641999487
 H       -10.0167552280       12.2408063338       -1.8902789531
 H        -8.4336670808       12.2408153925       -1.5089500281
 H        -9.5257418833       12.7891558639       -0.3683059015
 Na       -9.7800106655        7.3697217364        0.8750834519
