117

 C       -11.9841009890       11.0257203170       -0.9595154589
 C       -10.8076223608       10.0310210735       -0.5166430670
 O       -11.1100616639        8.9363723139       -0.0529577471
 C        -9.2037976348       10.6355070477       -0.6339694986
 C        -8.7357079283       10.4991807752        0.8495062858
 O        -9.1601163851        9.6818417515        1.6731386480
 C        -7.5454006382       11.4106192485        1.2061555865
 C        -6.3274960991       10.6391269540        1.8693850885
 C        -5.6219431766        9.5748072615        1.0841427611
 O        -5.1627752665        9.8373690162       -0.0459198459
 C        -5.3110261257        8.1826890667        1.7708467833
 C        -6.4611819983        7.2265587077        1.5106390380
 O        -7.2621651756        7.6140723184        0.6343870012
 C        -6.5775623948        6.0636227765        2.5185788680
 C        -7.3371241908        4.7960132462        2.1048620892
 C        -8.8004740679        4.8181672422        1.9979293118
 O        -9.4926274065        5.6398563737        2.5734754042
 C        -9.5528313402        3.7005519543        1.1877595376
 C        -9.5267313808        4.1602732465       -0.3497436545
 O        -9.7379727004        5.3412316408       -0.5000361423
 C        -9.4620700678        3.1141613223       -1.4642160033
 C       -10.6574430795        3.5203756839       -2.5128996771
 C       -10.5907791892        2.6018540526       -3.8688207368
 O        -9.5385883213        2.0384853877       -4.0404358379
 C       -11.8938415441        2.3089721675       -4.6718093228
 C       -12.3957193225        0.7579973697       -3.9496172957
 O       -13.4877892324        0.7613000589       -3.4773708382
 C       -11.4196379444       -0.5362380190       -3.9701143849
 C       -12.2700379901       -1.7755089400       -3.4572484024
 C       -11.6971565628       -2.3215174553       -2.1532358511
 O       -10.8046878288       -1.7881981727       -1.5003676169
 C       -11.9340965472       -3.8886888491       -1.9209968416
 C       -11.7494494373       -4.4252297360       -0.3913382270
 O       -11.7949035157       -5.6368140025       -0.1843903452
 C       -11.7543682568       -3.1929505807        0.6514067774
 C       -11.3775683554       -3.7404066432        2.1266172046
 C       -10.5676683994       -2.5041560970        2.7750556797
 O       -10.0427231428       -1.6718939712        2.0711918130
 C       -10.3885316681       -2.3615687304        4.4056612344
 C       -11.4726901182       -1.2812508431        4.8921614154
 O       -11.1034115812       -0.2151808708        5.2990289243
 C       -13.0001303620       -1.5423609506        4.8932798040
 C       -10.8900764352       -3.7108437543        5.0538971944
 C        -9.0050886944       -1.8808139296        4.7136736127
 C       -13.3456485034       -4.3589992099       -2.3534767876
 C       -10.9656937022       -4.5816627051       -2.8573530570
 C       -13.2092115718        3.2217449609       -4.4115276071
 C       -11.7290540275        1.7778371350       -6.1981087192
 C        -8.9029547049        2.3027883699        1.3980739551
 C       -10.9426408173        3.4670355574        1.6310709041
 C        -4.0706975450        7.5340655591        1.0670406715
 C        -4.9111510435        8.3516723300        3.3104033599
 C        -8.4023302816        9.6421419986       -1.5769503221
 C        -9.2777120345       12.0735008837       -1.2514077809
 H       -13.0231898493       10.5399644012       -0.9435509358
 H       -11.6684550611       11.0911731196       -2.0064434163
 H       -11.7700293317       12.0475404264       -0.4438808787
 H        -7.8022366517       12.1427115434        1.8791213278
 H        -7.2966819144       11.9016389690        0.2543560936
 H        -6.5742134619       10.1764628600        2.7810089395
 H        -5.5667639150       11.3982055772        2.0414192353
 H        -7.1460918781        6.5459822660        3.2478293085
 H        -5.5385495989        5.8653870157        2.7625579226
 H        -7.0922655549        4.0000070368        2.9159386501
 H        -6.8755471653        4.3621666701        1.1432096966
 H        -9.6719191639        2.1749366246       -0.9990590627
 H        -8.4381953352        3.1522283499       -1.9898912379
 H       -10.6285841536        4.5933511148       -2.6759778716
 H       -11.6320892166        3.3730208032       -2.0874005912
 H       -10.6573725208       -0.1913464165       -3.2403500083
 H       -10.8456737215       -0.6696647877       -4.8672976809
 H       -12.2350364315       -2.6814457275       -4.1518129824
 H       -13.2579654123       -1.4544789097       -3.0995131370
 H       -12.5656588744       -2.5119672967        0.5760030033
 H       -10.8985827483       -2.4931733374        0.4062673401
 H       -10.8616248965       -4.7167865147        2.0841658716
 H       -12.1513002906       -4.0092711642        2.8620238764
 H       -13.6357937590       -0.6777501956        5.1091995335
 H       -13.0646402606       -2.2891893120        5.6870398961
 H       -13.2927532981       -2.1607091439        4.0765369024
 H       -11.9592653025       -3.7635247812        5.0277677304
 H       -10.5523166145       -3.7177605257        6.0820417671
 H       -10.3342587473       -4.5985865347        4.7572866678
 H        -8.3735352535       -2.6893259446        5.1561854472
 H        -9.1947327105       -1.2040525970        5.4784013042
 H        -8.4495427583       -1.4712227520        3.7953913019
 H       -14.1679427933       -4.1389567258       -1.7679589781
 H       -13.3253246125       -5.5053256151       -2.3414137701
 H       -13.4738405251       -4.0164376092       -3.3334728097
 H       -10.5585419166       -5.5711834476       -2.4244097143
 H       -10.3413686608       -3.7399576761       -3.0538241682
 H       -11.3298716665       -4.9032674607       -3.7832393785
 H       -13.2633713485        3.6120642329       -3.3604397268
 H       -14.0419285717        2.6590542000       -4.6629149200
 H       -13.0715916463        4.1079734707       -4.9767125647
 H       -12.7618507080        1.6510513444       -6.5828040299
 H       -11.1592036962        0.9104492679       -6.0136313648
 H       -11.0297316340        2.4385455038       -6.7665295350
 H        -9.6377240024        1.5816831318        0.9212373089
 H        -8.9714131287        1.9442875828        2.3729819996
 H        -7.8834855943        2.0659772504        1.0582537052
 H       -11.0056904314        3.3912255802        2.7197942767
 H       -11.2132219659        2.4135847613        1.2447794259
 H       -11.7433333030        4.1236555230        1.4468565466
 H        -3.1668807079        8.0763223362        1.3569039637
 H        -4.2857612989        7.7183244017       -0.0498352578
 H        -3.8480270978        6.3958680288        1.1993022891
 H        -5.8302225922        8.5128739330        3.8681630467
 H        -4.1973126036        9.1190383790        3.4114859712
 H        -4.2559095942        7.4589169920        3.6612004062
 H        -7.2992044703        9.8315838261       -1.4738481465
 H        -8.6300609249        9.7706010229       -2.6325284575
 H        -8.4644165028        8.5869152784       -1.2668051215
 H        -9.9717134922       12.0673331630       -2.0650617048
 H        -8.3773318259       12.4289300440       -1.7200258260
 H        -9.5292316677       12.8367331024       -0.5538439658
 Na       -9.5793416591        7.3418814533        0.7156999618
