117

 C       -11.8732239051       10.8926941352       -0.7803234937
 C       -10.6166658393       10.0142911657       -0.5005923156
 O       -10.8806488466        8.8171622268       -0.1308898159
 C        -9.2526444547       10.5999526746       -0.6407447283
 C        -8.6120129819       10.5375808119        0.8178977623
 O        -9.1535341813        9.8807668029        1.6337852927
 C        -7.3518141942       11.4619277185        1.1403771867
 C        -6.4130536089       10.6208754441        1.9471793504
 C        -5.6446364043        9.6119983390        0.9885963670
 O        -5.4108764007        9.7745971378       -0.2069179293
 C        -5.2197154603        8.2606161373        1.6498609180
 C        -6.4788616770        7.2132681437        1.5576220771
 O        -7.2926280277        7.5327669984        0.7609366269
 C        -6.4955601758        5.9502506416        2.4850926576
 C        -7.3436300247        4.6456585844        2.0608846221
 C        -8.8958054404        4.7128198786        2.0020914107
 O        -9.5517052428        5.6620365618        2.3299330213
 C        -9.6480169978        3.6147432295        1.1033150150
 C        -9.5319865193        4.1658941709       -0.3499351255
 O        -9.7253264512        5.3713840326       -0.6783447737
 C        -9.5275855256        3.0901325487       -1.5192955478
 C       -10.5718044488        3.3234645948       -2.5379784666
 C       -10.6274394132        2.3975745051       -3.8222450852
 O        -9.6343117122        1.9215135683       -4.2662984399
 C       -11.9047190786        2.1021967041       -4.5483807642
 C       -12.3386016637        0.7871604906       -3.9428707075
 O       -13.3832790503        0.7291283631       -3.2887263667
 C       -11.5686611392       -0.5561505238       -3.9718566937
 C       -12.2565154737       -1.7599660221       -3.3347854750
 C       -11.5798041472       -2.3748346313       -2.0777204003
 O       -10.8257835125       -1.8008844445       -1.3696775809
 C       -11.9186613299       -3.8687850352       -1.8659227783
 C       -11.8030878061       -4.2751485649       -0.3588258520
 O       -11.7943433654       -5.4677159697       -0.0972211109
 C       -11.7514963067       -3.3004873786        0.7605032558
 C       -11.2826307139       -3.7051535350        2.2196281672
 C       -10.6771920002       -2.4745494015        2.8742511525
 O       -10.0766374769       -1.6133970579        2.2540759985
 C       -10.5945979543       -2.2985737485        4.5016881509
 C       -11.5687711733       -1.1860076352        4.8819604533
 O       -11.1933742945       -0.1265906245        5.4438347118
 C       -13.0681438455       -1.4824488096        4.7363776089
 C       -10.9532633317       -3.7559089746        5.0313052417
 C        -9.1670164904       -2.0090692721        4.8918244951
 C       -13.3130015963       -4.3528293565       -2.3288516115
 C       -10.8522062179       -4.6110033765       -2.8019596474
 C       -13.0038822969        3.2547048572       -4.4020047625
 C       -11.7795412689        2.1292975552       -6.1437664215
 C        -8.9122538586        2.2176659434        1.1586767828
 C       -11.0969095284        3.7587725627        1.5453630017
 C        -3.8490463912        7.6729634003        1.0326750153
 C        -5.0693030342        8.4480522995        3.2373109160
 C        -8.4124909349        9.7047558911       -1.6349348602
 C        -9.1916200091       11.8939071724       -1.2420064106
 H       -12.8449671251       10.3281772836       -0.4506176014
 H       -11.9320954510       11.0003158579       -1.8925442719
 H       -11.6279408436       11.8611860747       -0.2325080496
 H        -7.8090685243       12.1875642053        1.8470128323
 H        -6.9043799470       11.9535708777        0.3355381328
 H        -6.8970950544        9.9720227180        2.6131453715
 H        -5.7238093410       11.3125530048        2.5351719638
 H        -7.1912093298        6.3308492137        3.2529325906
 H        -5.4987220413        5.8175298239        2.8116107134
 H        -7.1548674579        3.9126638348        2.9631344903
 H        -6.9950099927        4.0596193411        1.1523016362
 H        -9.6481118307        2.0353937871       -1.0886205648
 H        -8.6289217766        3.2566467684       -1.9300069367
 H       -10.6289853362        4.3444989408       -2.7785884463
 H       -11.5222486646        3.0990765241       -2.0741581653
 H       -10.4822610802       -0.4112408408       -3.6558721577
 H       -11.4712468324       -0.7642023354       -5.0909222851
 H       -12.2216228650       -2.6042417486       -4.1198914019
 H       -13.2874563939       -1.4770720383       -2.8978627261
 H       -12.8211176684       -3.1408314960        0.9868520898
 H       -11.4668597435       -2.2620671160        0.5140817945
 H       -10.4390489489       -4.3476545908        2.2608031087
 H       -11.9759046792       -4.2728005468        2.7581303795
 H       -13.6241010889       -0.5499389766        4.7575727625
 H       -13.4653281325       -2.1934693272        5.4705612304
 H       -13.1781771523       -2.0920653507        3.7224633351
 H       -11.9520998026       -4.1023225286        4.8230628508
 H       -10.7406674820       -3.8982816567        6.1330024147
 H       -10.1506857712       -4.3516157008        4.7035437647
 H        -8.7410848808       -2.8540126729        5.5326259174
 H        -9.2741515005       -1.0675996558        5.5792045045
 H        -8.4983677645       -1.9121779566        4.0289106711
 H       -14.2351744201       -3.8327444758       -1.8670968663
 H       -13.4869882607       -5.3887702602       -2.0314892453
 H       -13.2981331449       -4.2138540562       -3.3855357453
 H       -10.9914841422       -5.6743652502       -2.6029120168
 H        -9.9275854014       -4.0492868578       -2.5406036719
 H       -10.9882773809       -4.4912752349       -3.8606458979
 H       -13.1738419134        3.6731238853       -3.4373264814
 H       -13.8449319249        2.7256936621       -4.7714655298
 H       -12.7492113523        4.0826775939       -5.1041437447
 H       -12.8677773510        1.9725067833       -6.4573159221
 H       -11.0075108161        1.4708030429       -6.4020938515
 H       -11.3587339441        3.1249448416       -6.4097634032
 H        -9.5131560572        1.4780751994        0.7671815309
 H        -8.8910774284        1.8966494339        2.2593304573
 H        -7.8660040700        2.0840080266        0.8110236391
 H       -11.2386583232        3.7600652840        2.6294710250
 H       -11.7932604349        3.0206918909        1.1233337961
 H       -11.4669358090        4.7728877105        1.2990540290
 H        -2.8549922429        8.0602833011        1.5713293350
 H        -3.8477783546        7.8637206463       -0.0649742082
 H        -3.8036057676        6.5591167446        1.1554182520
 H        -6.1076425766        8.6146442832        3.6467142965
 H        -4.4128317615        9.3284484761        3.3702950611
 H        -4.4967183543        7.6640540043        3.7271822593
 H        -7.4153836604       10.1078042532       -1.6270405843
 H        -8.8120527536        9.9481038160       -2.6457776743
 H        -8.2167671917        8.6185110539       -1.5534167531
 H        -9.4034758090       12.0532885284       -2.3149547158
 H        -8.0301150800       12.1089337768       -1.1583462466
 H        -9.5580568927       12.7127715301       -0.5957229747
 Na       -9.4287230826        7.3221443437        0.6177511560
