117

 C       -11.8458527610       10.7853445411       -0.4689963881
 C       -10.5290668828        9.9621392467       -0.5870188408
 O       -10.6226583674        8.7799424841       -0.5299415868
 C        -9.1576095762       10.5880074168       -0.7910276822
 C        -8.4798011899       10.6268217522        0.6537387046
 O        -9.0046428835        9.9091311114        1.5350939849
 C        -7.1721394362       11.5398492894        0.9616575528
 C        -6.3128998425       10.6620554248        1.8601841367
 C        -5.8944042155        9.4277690038        1.0659949793
 O        -5.7828149420        9.4507117561       -0.1442944097
 C        -5.2676598466        8.2244918089        1.8243884468
 C        -6.2404831181        7.1174840611        1.5723623606
 O        -7.1052972885        7.2539265284        0.6757474514
 C        -6.4569428934        5.7683310522        2.4673531955
 C        -7.2000829374        4.6172411166        1.7854725052
 C        -8.7946721642        4.9161797353        1.6163549225
 O        -9.2945789411        5.9164418128        2.1375319488
 C        -9.6190378579        3.8153664368        0.8503437712
 C        -9.4867959418        4.1097369958       -0.7191154110
 O        -9.6333989728        5.2641329535       -0.9855063594
 C        -9.3040319856        2.9986343009       -1.7704408902
 C       -10.6303734174        3.1321007645       -2.5518675569
 C       -10.5530111672        2.3549626107       -3.8819251988
 O        -9.5548740580        1.8069746515       -4.3148398277
 C       -12.0224896616        2.1088022839       -4.5782583945
 C       -12.5089406703        0.7973937618       -3.8691293365
 O       -13.3414484254        0.8996972052       -3.0189745519
 C       -11.8471805170       -0.5343380992       -4.0778235140
 C       -12.3953283895       -1.8088002846       -3.3450118271
 C       -11.5059191608       -2.3463358273       -2.1381325174
 O       -10.7971767174       -1.5412821026       -1.5524409983
 C       -11.7966048735       -3.8451151944       -1.6800710869
 C       -11.7537957654       -4.2333077326       -0.2083255655
 O       -11.6238562226       -5.3928972104        0.1546107408
 C       -12.0275573540       -3.1583741776        0.9373836717
 C       -11.0970212635       -3.5866079371        2.1155830868
 C       -10.7127901123       -2.3379788575        3.0963016643
 O       -10.2717633269       -1.3144211493        2.6074239070
 C       -10.7511887050       -2.4934602465        4.6491462542
 C       -11.7523780750       -1.2720286362        4.8595646322
 O       -11.4503711701       -0.3272576484        5.5126239373
 C       -13.1661477939       -1.3141486219        4.3848386261
 C       -11.3434026827       -3.6861012469        5.3063677658
 C        -9.3794417967       -2.0448584545        5.3196254592
 C       -13.1570859812       -4.1629883866       -2.2072697587
 C       -10.7459695509       -4.7985601580       -2.2649277756
 C       -13.0444808455        3.2693775344       -4.0079278159
 C       -11.6776739562        2.0350499130       -6.1053660843
 C        -9.3394117479        2.3641295328        1.3292084283
 C       -11.1332414675        3.8315908639        1.2384861343
 C        -3.8898442965        7.8418793570        1.0985155203
 C        -4.8902187840        8.4040921704        3.2897653583
 C        -8.3190864693        9.6496922821       -1.6300022009
 C        -9.1870657700       11.9674868644       -1.2848259207
 H       -12.5306059117       10.0601271155       -0.2349423782
 H       -12.0905028449       11.0504229879       -1.4230463135
 H       -11.6648744777       11.6106560981        0.1743310092
 H        -7.4430662988       12.5424079244        1.2934156565
 H        -6.6579806905       11.5317724129       -0.0940836117
 H        -6.7688273131       10.1579601418        2.7879367472
 H        -5.4189422379       11.1437930777        2.2170140895
 H        -7.2050665422        6.1231807304        3.2395856023
 H        -5.4461613357        5.5322709147        2.9608384716
 H        -7.0946064847        3.7878662696        2.3665472464
 H        -6.8195060338        4.3052457927        0.8639517694
 H        -9.3729474504        2.1268825685       -1.2275101596
 H        -8.3046590539        3.1641725397       -2.3970722941
 H       -10.8349070358        4.1729428254       -3.0142644414
 H       -11.4851819268        2.8319332322       -1.9053459321
 H       -10.9017566886       -0.3428501249       -3.5854537710
 H       -11.5836388783       -0.6036806585       -5.1102470176
 H       -12.3164288224       -2.6037519564       -4.0442780750
 H       -13.3373668649       -1.5392623626       -2.8924593120
 H       -13.1074490225       -3.0226300410        1.1925083379
 H       -11.7941120425       -2.1757510322        0.4749115543
 H       -10.1571670187       -4.1542877746        1.7816988778
 H       -11.7116629455       -4.3415368260        2.7151307772
 H       -13.4866673992       -0.2910540124        4.6470918437
 H       -13.5312429553       -1.9332767743        5.2347099521
 H       -13.5769747275       -1.7283056503        3.5482697783
 H       -12.3748877155       -3.7155849831        4.9479384592
 H       -11.4200260672       -3.4512617745        6.3263283174
 H       -10.8130396067       -4.6692314722        5.2862361696
 H        -9.1946668758       -2.6358439597        6.1901795454
 H        -9.3836291959       -1.0190255462        5.4367533668
 H        -8.5516817012       -2.4422677418        4.6651230016
 H       -13.8022505180       -3.4098176303       -1.9010978889
 H       -13.5688990217       -5.0025380289       -1.5973119466
 H       -13.2131866467       -4.2724878215       -3.3138054489
 H       -11.2791096855       -5.3384588134       -3.0787513703
 H       -10.2130698310       -5.3035839592       -1.4973492140
 H       -10.0501266089       -4.1496466844       -2.7901002837
 H       -13.5908532398        2.6646389487       -3.2089888158
 H       -13.7883741952        3.5256133315       -4.7785135313
 H       -12.5324524798        4.1625530382       -3.6680794260
 H       -12.5703618876        1.6687223333       -6.4775252481
 H       -10.8208585871        1.3495980531       -6.0651318858
 H       -11.2700596328        2.9422825917       -6.4969569063
 H       -10.1809374317        1.5991292855        1.0806578433
 H        -9.0758719976        2.2771010470        2.3198872549
 H        -8.4785432890        1.9775553728        0.8083456378
 H       -11.2579047858        3.2992963161        2.1759995787
 H       -11.7985493529        3.3363969300        0.5004701813
 H       -11.5916613637        4.7530706814        1.4825913224
 H        -3.1992612944        8.4995700633        1.4357742773
 H        -3.9313053313        7.9037803105        0.0548450005
 H        -3.4667762508        6.9275269643        1.3948372845
 H        -5.7185383524        8.4141986958        3.9365511222
 H        -4.2213629140        9.2341490251        3.3609792088
 H        -4.3792690455        7.4317039798        3.5790564956
 H        -7.2646581638        9.9680468934       -1.7076014617
 H        -8.7577532690        9.6040810093       -2.5921771065
 H        -8.1863366914        8.6330568743       -1.3112272781
 H        -9.6300907648       11.7673082064       -2.2707667404
 H        -8.3892492962       12.6171681529       -1.4008339171
 H        -9.8914514246       12.5441598526       -0.6755223717
 Na       -9.4512874528        7.1954010291        0.5186581964
