117

 C       -11.7643295421       10.8358571495       -0.2158118263
 C       -10.6001864078        9.9327240371       -0.7167852477
 O       -10.7946978281        8.8514630056       -1.1567194227
 C        -9.0686761097       10.5606549357       -0.9349358724
 C        -8.4123399907       10.4086805376        0.3872076718
 O        -8.6991987901        9.4388244303        1.1093470893
 C        -7.2469826498       11.4032986457        0.9028397686
 C        -6.1592623589       10.6352705105        1.8103805588
 C        -5.8222227687        9.3812574755        1.0416246039
 O        -6.0639906824        9.2866882237       -0.1350046193
 C        -5.2588826215        8.0220097528        1.8522264764
 C        -6.1981899716        6.8834677029        1.4951032362
 O        -6.8621673962        6.8995155604        0.4543379619
 C        -6.2165275846        5.5848752202        2.3866211417
 C        -7.0756210689        4.4927620932        1.7562650633
 C        -8.5297709264        4.9626777424        1.5748712226
 O        -8.9784321256        5.8515029857        2.2838184813
 C        -9.4968673605        3.9274489195        0.7239543461
 C        -9.1604065270        4.2212709612       -0.7204644796
 O        -8.8355269066        5.3464809677       -1.0764373698
 C        -9.2945798300        3.2181628529       -1.8297180761
 C       -10.6648727070        2.9887583443       -2.4329737175
 C       -10.7264913787        2.2122997807       -3.8546155749
 O        -9.6408707715        1.8216280149       -4.2922531508
 C       -12.0759552390        1.9528684092       -4.4386595635
 C       -12.6561642549        0.6332214191       -3.5643511123
 O       -13.4319144337        0.7676293170       -2.6904074003
 C       -11.9742991597       -0.6880139494       -4.0047779160
 C       -12.4628768459       -1.8966242955       -3.2952619317
 C       -11.7191151567       -2.2562072002       -2.0227170378
 O       -10.6590316296       -1.7061711789       -1.7005584451
 C       -11.8403383651       -3.7642974121       -1.6247630447
 C       -11.6586770975       -3.9526284878       -0.0280268319
 O       -11.4589060859       -5.0805460305        0.3330100432
 C       -11.5260761619       -2.7228949322        1.0165148896
 C       -11.0245637208       -3.2596371093        2.3033985376
 C       -10.7370947832       -2.1851748754        3.3762063068
 O       -10.4262071965       -1.0516808286        3.0518974205
 C       -11.0759303432       -2.4025496252        4.8280125626
 C       -12.1899295623       -1.0079838676        5.1731975587
 O       -11.9509786730       -0.1863134377        5.9443658116
 C       -13.5363337968       -1.0333858148        4.2826626290
 C       -11.8455625902       -3.6592610687        5.1279825805
 C        -9.8446006058       -2.2779943367        5.7703125623
 C       -13.2268671178       -4.4397234165       -1.8405712748
 C       -10.6665367122       -4.4363399295       -2.3049570856
 C       -12.9979598569        3.1901606901       -4.3440347521
 C       -11.8578753348        1.4525808865       -5.9454872258
 C        -9.4011285688        2.4251223629        1.1200852648
 C       -10.9011796117        4.4283241625        0.9808086281
 C        -3.8189572495        7.5396553437        1.2361138422
 C        -5.1092841181        8.1389289061        3.4043655841
 C        -8.2464191444        9.8645403681       -1.9793782084
 C        -9.3746009571       12.0570803385       -1.3946310602
 H       -12.6993210565       10.2581226056       -0.2021051730
 H       -11.8549980323       11.6013729760       -1.0119862386
 H       -11.2916077624       11.2399326548        0.7032750205
 H        -7.6686322546       12.2249931832        1.4738005307
 H        -6.8479274517       11.7988595251       -0.0625006559
 H        -6.4471620350       10.4682204568        2.9003533515
 H        -5.2358441474       11.1806696645        1.8748993631
 H        -6.4523506904        5.9499879545        3.4051689034
 H        -5.1755028140        5.2887170541        2.5003008734
 H        -7.0820417933        3.5771845547        2.3775040981
 H        -6.7159989170        4.0483323205        0.7493612340
 H        -8.8665826345        2.3792865855       -1.4475931732
 H        -8.7010607186        3.5505992175       -2.7298858564
 H       -11.2074660967        3.8786877808       -2.7020931652
 H       -11.1574111321        2.3333416102       -1.7768172332
 H       -10.9155032547       -0.4397424116       -3.6730188338
 H       -11.9050554504       -0.7802321207       -5.1422050848
 H       -12.1368134020       -2.6472495054       -4.0319983706
 H       -13.5776093679       -1.6157155847       -3.1433369090
 H       -12.5939517285       -2.4038512141        0.9926123824
 H       -11.1415687902       -1.8621134841        0.5479612209
 H       -10.0629513903       -3.6379387152        2.1542493576
 H       -11.6944636890       -4.0191610118        2.5979372393
 H       -13.9254859951        0.0270735308        4.0492010814
 H       -14.2964415581       -1.6607582964        4.8519556656
 H       -13.4769671104       -1.6238601151        3.4007813670
 H       -12.7707198632       -3.7296170785        4.4778235943
 H       -12.1840233634       -3.6126738317        6.1597738396
 H       -11.3692815782       -4.6232152203        4.8212718996
 H       -10.0177536035       -1.6484894730        6.6627890729
 H        -9.0455370000       -1.9871096136        5.0783881633
 H        -9.5148062691       -3.2220827487        6.3434415618
 H       -14.0062991742       -3.9015907490       -1.2977867715
 H       -13.1891473306       -5.4792684572       -1.4784896185
 H       -13.5065115599       -4.5176046893       -2.9612530801
 H       -10.2692906463       -3.8271263579       -3.1122211082
 H       -10.9993120332       -5.4182110706       -2.5856287837
 H        -9.8517667536       -4.4876908932       -1.5064073554
 H       -13.8509279410        2.9050074914       -3.7776349350
 H       -13.2089558357        3.7265071597       -5.2785391712
 H       -12.4234039506        3.8505992574       -3.7932441389
 H       -12.6676891238        0.8299939523       -6.2407254115
 H       -10.7998988691        0.9904463961       -6.0028656998
 H       -11.8232256696        2.4681530034       -6.3190911675
 H       -10.0088685164        1.7132956127        0.4027228069
 H        -9.7941118616        2.2437500648        2.1049084751
 H        -8.3550837936        2.1192036352        1.0610119945
 H       -11.1408858835        4.7627235500        2.0037280934
 H       -11.7155330045        3.7939725598        0.6709084467
 H       -11.0872833969        5.3361605023        0.3453622965
 H        -2.9677977743        8.1935740984        1.1610732286
 H        -3.8778134988        6.9714029479        0.2215393484
 H        -3.4806503512        6.7341556994        2.0295033495
 H        -5.9637047512        8.4792706774        3.9872826261
 H        -4.3427945727        8.9488458512        3.4113675557
 H        -4.9485899562        7.1933564381        3.8949065783
 H        -7.2169163813       10.2549240591       -2.1393268085
 H        -8.8264270438        9.7490851440       -2.8940515131
 H        -8.0717136661        8.8284095498       -1.6765929169
 H       -10.0511589407       12.1911208341       -2.3269265850
 H        -8.4643075257       12.5952908119       -1.6295283723
 H        -9.7934744707       12.6996972690       -0.5222342066
 Na       -9.2656245357        7.4289957848        0.0700938157
