117

 C       -11.6818060060       10.7947687341       -0.1286562952
 C       -10.5486541657        9.9937800760       -0.9489866100
 O       -10.7142332324        8.7698613296       -1.1925531324
 C        -9.0877805081       10.6955182768       -0.9960688415
 C        -8.3346682041       10.2556961301        0.3167583420
 O        -8.4743066540        9.2241811281        0.9098278619
 C        -7.3041071074       11.2168246503        0.9448083556
 C        -6.4529304652       10.4034840348        1.7660157141
 C        -5.9067357790        9.0631931093        0.9002390624
 O        -5.6873460020        9.1745428446       -0.2935165190
 C        -5.2628928233        7.9113649841        1.7453285055
 C        -6.1515632102        6.6701575267        1.3952168174
 O        -6.8675564794        6.7765305626        0.4628133920
 C        -6.1275664472        5.4429123204        2.3224047326
 C        -7.0369032057        4.2823705415        1.9314872584
 C        -8.4627682396        4.8629946027        1.5342995013
 O        -8.8220364291        5.8913371238        2.0507177079
 C        -9.5328678804        4.0815094239        0.6066199907
 C        -9.1029625374        4.3463718635       -0.8502978061
 O        -8.5371908209        5.3752020331       -1.2252363518
 C        -9.1680554765        3.2022823297       -1.9494018542
 C       -10.6979869749        2.9685595588       -2.3137472835
 C       -10.6431794044        2.2789368278       -3.7259991046
 O        -9.5862043398        1.9405161160       -4.1969474289
 C       -12.1518312738        1.8422945758       -4.4481503864
 C       -12.6728203298        0.6053262595       -3.6368690993
 O       -13.3895225354        0.7130025923       -2.5946449824
 C       -12.0901624658       -0.7715737479       -4.0246289737
 C       -12.7856434162       -1.8595906121       -3.0754575818
 C       -11.7020917526       -2.3181901041       -2.0473938103
 O       -10.9442325165       -1.4978745239       -1.5912680426
 C       -11.6937504399       -3.8552810070       -1.5112557084
 C       -11.2871237770       -4.0022003583        0.0969620625
 O       -11.3772721904       -5.0815943233        0.6341503314
 C       -11.0176994061       -2.6828000970        0.9393507438
 C       -11.0287660262       -3.0121985482        2.4281605903
 C       -10.9213863896       -1.8706492538        3.4011467090
 O       -10.2598145202       -0.8985796055        3.1786485144
 C       -11.4470240751       -2.1740986614        4.8992222043
 C       -12.4571086611       -1.0153584893        5.3457751530
 O       -12.1892165415       -0.2976820373        6.2920752268
 C       -13.7351733109       -0.8617148426        4.4783974309
 C       -12.2549038991       -3.5975991137        5.0422514539
 C       -10.2699560082       -2.1496304880        5.9140713180
 C       -13.1163146751       -4.4088849426       -1.7364463968
 C       -10.6883676591       -4.7382121115       -2.3227622882
 C       -13.2783654871        2.9435722450       -4.3802093037
 C       -11.7879756808        1.5353890946       -5.9743300400
 C        -9.4145753274        2.5074153944        0.9038813012
 C       -10.8923845991        4.6766082464        0.9387785754
 C        -3.8530565332        7.7295240385        1.3387132044
 C        -5.3145439552        8.3603214642        3.2446345281
 C        -8.5390919252        9.9759279510       -2.3183782398
 C        -9.0298864596       12.1684580508       -1.1664973577
 H       -12.4883785813       10.1476546506       -0.1875190629
 H       -11.9964510160       11.6559055488       -0.7669284996
 H       -11.2669767040       11.0580637705        0.7689703064
 H        -7.8248041312       12.1006954079        1.4373155553
 H        -6.7140143582       11.5827485271        0.1269064492
 H        -6.9147552486       10.1074091727        2.6968367420
 H        -5.5655701981       11.0292719786        2.1097479242
 H        -6.3140943511        5.9127736124        3.2867252939
 H        -5.0722650880        5.0934157801        2.5020657859
 H        -7.2187185576        3.7587379227        2.8584073844
 H        -6.6639596484        3.5819137240        1.2822318885
 H        -8.5031646864        2.2968398349       -1.5451587403
 H        -8.7008058085        3.4784674011       -2.8766615091
 H       -11.4074601040        3.8030493650       -2.3942757714
 H       -11.0146800687        2.0210614170       -1.7846503481
 H       -11.0112740555       -0.7886436439       -4.0013978823
 H       -12.3903789099       -0.8964429829       -5.0508990625
 H       -13.0189502238       -2.5708301400       -3.8578030448
 H       -13.5001580889       -1.3127379437       -2.5790619132
 H       -11.5559451839       -1.8504077111        0.5653633871
 H       -10.0177768081       -2.3274274389        0.5657642896
 H       -10.0989988125       -3.5963816594        2.7778795965
 H       -12.0297748762       -3.4867868434        2.6605163791
 H       -13.8818955548        0.1722644237        4.3120390701
 H       -14.6257456014       -1.3118587504        4.8471643091
 H       -13.5423473247       -1.3726673845        3.4664053643
 H       -13.1361173416       -3.6554175819        4.4643078056
 H       -12.5895993662       -3.6297360189        6.0804530207
 H       -11.7736790160       -4.4859903879        4.7350616616
 H       -10.4908294206       -1.2197867349        6.4602615520
 H        -9.2307575329       -2.1979203533        5.5088192358
 H       -10.3564427255       -2.7707866697        6.7241204419
 H       -13.8726087623       -3.6037940802       -1.4073541750
 H       -13.2114622421       -5.2853213666       -1.1509385437
 H       -13.3517815327       -4.6736562013       -2.7459528795
 H       -10.5508656592       -4.2543925428       -3.2851205973
 H       -11.2105057419       -5.6914373599       -2.5628266271
 H        -9.7118781696       -4.7217201886       -1.8436550895
 H       -14.0622102341        2.6031239500       -3.6705261152
 H       -13.6650575765        2.9507547470       -5.3978223085
 H       -12.9176092122        3.9958286042       -4.1868838803
 H       -12.5445860742        0.8370391805       -6.2873887853
 H       -10.9060854662        0.9362113551       -5.8380481629
 H       -11.7296701656        2.4398209064       -6.4971216797
 H       -10.2080757579        2.1224395377        0.4048777733
 H        -9.7110217514        2.3204266326        1.9643249745
 H        -8.5509518970        1.9445560931        0.5499782105
 H       -11.0756377018        4.5933542606        1.9936714143
 H       -11.7234963028        4.1559387473        0.4685375375
 H       -11.1049433055        5.6822517416        0.6353686605
 H        -3.2896358608        8.4553035880        1.8995259879
 H        -3.7236242856        8.0378343113        0.3686129312
 H        -3.3865838906        6.8420882425        1.4550203256
 H        -6.3176372376        8.2182334391        3.6490091722
 H        -4.9941377454        9.3461190204        3.4938860349
 H        -4.7798519886        7.5626469727        3.7143036212
 H        -7.5074993713       10.2221762961       -2.2210954065
 H        -8.8554158925       10.2912446927       -3.3195157790
 H        -8.5823350204        8.8764412966       -2.3582232369
 H        -9.4982956670       12.6046170348       -2.0133073387
 H        -7.9681704356       12.5125772251       -1.1083714686
 H        -9.4793813546       12.6361682477       -0.3026089445
 Na       -8.9571062091        7.3775291952       -0.1234375826
