117

 C       -11.7948234838       10.9035158668       -0.4524649582
 C       -10.5474687748        9.9896194673       -0.8773522253
 O       -10.6560827717        8.7878216607       -0.9187447426
 C        -9.1859354365       10.7508025642       -1.2669589835
 C        -8.2939453530       10.3594477081        0.2137601490
 O        -8.3919272801        9.2179010640        0.5956848301
 C        -7.0694305248       11.1111037725        0.6510578848
 C        -6.3406044824       10.2974768370        1.7333112201
 C        -5.6340022388        8.9592778923        1.1912740272
 O        -5.3866253307        9.1638879139       -0.0110382630
 C        -5.0530100756        7.7331609112        1.9336134829
 C        -5.8001472481        6.4856280748        1.2581585362
 O        -6.0331557288        6.4269573380        0.0896167428
 C        -6.1395203465        5.3965493395        2.3110848814
 C        -7.0542301891        4.4011119272        1.7664202307
 C        -8.3960899526        5.0494979383        1.1507713368
 O        -8.6337509303        6.1408595615        1.6338940616
 C        -9.3866088334        4.1336087960        0.4066156889
 C        -9.1205412165        4.1779328701       -1.1679172302
 O        -8.8792060516        5.2523415204       -1.6748120615
 C        -9.2384400950        2.9058435399       -1.9151462320
 C       -10.8021280870        2.8651187583       -2.5055460602
 C       -10.7258886885        2.1749901650       -3.8242229619
 O        -9.6701771510        2.0804239792       -4.4032696555
 C       -12.0709485644        1.7810899592       -4.4253396167
 C       -12.7697891931        0.5448585199       -3.4781050812
 O       -13.2279860555        0.8296858571       -2.3495716106
 C       -12.4929184355       -0.9646863559       -3.9525729301
 C       -12.6923925874       -2.1984454232       -3.1075588596
 C       -11.7217639398       -2.2869397259       -1.8481987886
 O       -10.8991657751       -1.4584738503       -1.5984844639
 C       -11.6311241373       -3.7585671983       -1.1551231793
 C       -11.0440659478       -3.9331244516        0.3175953647
 O       -11.0587338332       -5.0308821627        0.8639449229
 C       -10.5295265032       -2.7382619081        1.1429121060
 C       -11.2382719901       -2.8576881417        2.5092041623
 C       -11.1378698974       -1.6517082304        3.5058060257
 O       -10.4707573873       -0.6779480008        3.2493349668
 C       -11.9067670352       -1.9875869387        4.9724931881
 C       -12.8232411221       -0.9396674977        5.4517810674
 O       -12.5748277863       -0.3765533072        6.5411101470
 C       -14.0179587632       -0.5415904734        4.5200862607
 C       -12.7507674297       -3.2625121831        5.1223688932
 C       -10.7047611949       -2.0831293089        5.9861436821
 C       -13.0920503600       -4.3616290896       -1.0799648580
 C       -10.6592404099       -4.5124696021       -2.0903412936
 C       -13.0803003225        2.9407761672       -4.2196289088
 C       -11.8576327849        1.3119053627       -6.0080067220
 C        -9.4843392800        2.7336281184        1.1404489403
 C       -10.9513333560        4.5801669363        0.5390014767
 C        -3.5938607400        7.5072275139        1.5751846778
 C        -5.1168573973        7.8928633677        3.4515463150
 C        -8.3618819490       10.2552418817       -2.4352803480
 C        -9.4183572054       12.2575315994       -1.2209695051
 H       -12.6583039527       10.2378351918       -0.4230262139
 H       -11.9677032891       11.5629010910       -1.2878554522
 H       -11.5168125889       11.4312793624        0.4593346594
 H        -7.4004623173       12.1412211319        0.9277767264
 H        -6.6049567682       11.2205606656       -0.3853440298
 H        -6.9948364815       10.2563130620        2.6392825472
 H        -5.4624991510       10.9262353411        2.0715517727
 H        -6.5213473364        5.9043342689        3.1899896909
 H        -5.1885115948        4.9382602979        2.7596757325
 H        -7.3903039718        3.8269721233        2.6669999021
 H        -6.6794497469        3.7214427638        1.0329763735
 H        -8.8870438027        1.9900940932       -1.2873570773
 H        -8.4046235310        2.9371369135       -2.5620947222
 H       -11.1229901206        3.8638840135       -2.7725546152
 H       -11.3988159556        2.3815629036       -1.7440146771
 H       -11.3563245097       -1.0126068331       -4.1957121788
 H       -13.1330585636       -1.0786634747       -4.8652951503
 H       -12.2105776135       -2.8170598841       -3.8650009017
 H       -13.7913157238       -2.1996833207       -3.0030017241
 H       -10.4330358982       -1.7671391149        0.6765370346
 H        -9.4603344935       -3.0465071089        1.3699527777
 H       -10.9506155666       -3.7225122191        3.0078117112
 H       -12.2529085433       -2.6729776581        2.3415687070
 H       -14.3952420758        0.4360531794        4.6771557581
 H       -14.8359819350       -1.2418989699        4.7680282918
 H       -13.8574720889       -0.6586949779        3.3737366812
 H       -13.6275466795       -3.3424689120        4.4286150494
 H       -13.1625920088       -3.2805085943        6.1527732135
 H       -12.1996145028       -4.2508083217        5.0345276827
 H        -9.6317336715       -1.8412533307        5.6895581268
 H       -10.7174929334       -3.1945277892        6.2248783431
 H       -10.8972350794       -1.6642758814        6.9838731108
 H       -13.8543701630       -3.7370522532       -0.4483846241
 H       -12.9878619385       -5.4130501516       -0.7509712561
 H       -13.5149055004       -4.3530191246       -2.0738595484
 H       -11.0100653424       -5.4064535084       -2.6529055687
 H        -9.9252485139       -5.0060810744       -1.4566687118
 H       -10.2574414898       -3.7297738444       -2.6227435629
 H       -12.8521108699        3.5891567487       -3.3570014044
 H       -14.0222777626        2.5388862012       -4.1734521072
 H       -13.1093660020        3.5175133738       -5.1119131245
 H       -12.8298729735        1.1962378935       -6.5591729026
 H       -11.3667767997        0.4128365611       -5.8424946071
 H       -11.3109783139        2.1786869338       -6.3904248599
 H       -10.1492516714        2.0720756707        0.6996483584
 H        -9.8313185727        2.9657720181        2.1857484191
 H        -8.4506259274        2.2445460554        1.1127965661
 H       -11.4298737796        4.0654090999        1.3743289113
 H       -11.6027286482        4.3030410580       -0.3601162594
 H       -11.2695933778        5.5888254809        0.5904270677
 H        -2.9405192921        8.5163935339        1.6439757118
 H        -3.3693746629        7.1279602925        0.5421530751
 H        -3.1143085123        6.8003203010        2.2778343941
 H        -6.1494669025        8.2226332391        3.6729434615
 H        -4.5178146234        8.7363983835        3.7037821624
 H        -4.7277978540        7.0004895714        4.0754842730
 H        -7.3494223448       10.6207193854       -2.5998680798
 H        -8.9323224441       10.4770773278       -3.3317940304
 H        -8.5114275186        9.1726329237       -2.5139955662
 H       -10.2185494096       12.4384131423       -1.9637469431
 H        -8.4898634402       12.7974887863       -1.6592710485
 H        -9.9041734266       12.7374312623       -0.3489696979
 Na       -9.0512398656        7.2587149334       -0.4194292701
