117

 C       -11.6797004954       11.1314726697       -1.0059526777
 C       -10.4943797122       10.0104087562       -0.8906192002
 O       -10.7857452904        8.8268248777       -0.8401743742
 C        -8.9940643051       10.6755091426       -0.8972587488
 C        -8.0777867748        9.9875311511        0.0756944600
 O        -8.1743463984        8.8192270317        0.3574954992
 C        -7.0381111459       10.8870751205        0.6013775512
 C        -5.9512537871       10.2728899712        1.5645500470
 C        -5.1057087247        9.1330744337        1.0108270834
 O        -4.8267212078        9.1503199278       -0.1707161755
 C        -4.7998755446        7.7906504200        1.8527242686
 C        -5.5170095017        6.5344032358        1.2729436185
 O        -5.4048118767        6.2434045464        0.1325498858
 C        -6.3316044849        5.5186436894        2.2755261846
 C        -7.0327590195        4.3470885822        1.5563078484
 C        -8.4144394299        4.8929514114        1.0429898635
 O        -8.5798602035        6.1020631800        1.1374924218
 C        -9.5732671744        3.9651073594        0.4389389634
 C        -9.3397028646        4.0102977892       -1.1902787380
 O        -9.0500769189        5.0710173382       -1.7078926500
 C        -9.3166318881        2.8280196547       -2.1192978275
 C       -10.7732485697        2.6980686997       -2.8174421743
 C       -10.7856950907        1.8204515834       -4.1454851950
 O        -9.8795542756        1.5484965953       -4.9164062358
 C       -12.1792925923        1.4292835987       -4.4701504429
 C       -12.5020729954        0.3731305444       -3.4378889249
 O       -12.8056066802        0.7254270954       -2.2480068075
 C       -12.3383959237       -1.1305348705       -3.6945992229
 C       -12.7525988825       -1.9307599061       -2.4077345409
 C       -11.5671612990       -2.2590764772       -1.4661193284
 O       -10.7556230848       -1.3812434240       -1.1786244670
 C       -11.5398777213       -3.6942168528       -0.8593555006
 C       -10.7276955826       -3.6574526647        0.5301064983
 O       -10.1061575422       -4.6290505980        0.8933217044
 C       -10.8920217444       -2.3532142571        1.3490819836
 C       -11.8595989850       -2.6189494662        2.4316588154
 C       -11.8176167709       -1.6091341555        3.6199508055
 O       -11.2371469843       -0.5662053748        3.5283910825
 C       -12.2806093201       -1.8709471463        5.1100778527
 C       -13.0509829351       -0.5502807059        5.4856116186
 O       -12.9599304475       -0.0941182299        6.5609735830
 C       -14.0652292412       -0.0081549857        4.4329126283
 C       -13.2740786758       -3.0694734648        5.4019712100
 C       -11.1519920906       -1.9949781181        6.1064959258
 C       -13.0167131830       -4.2495723728       -0.7795652245
 C       -10.7115136038       -4.5077649559       -1.9178976183
 C       -13.2556991040        2.5299099080       -4.2826341783
 C       -12.3381942884        0.9123945806       -5.9876871040
 C        -9.7022949599        2.5370087007        1.2413714664
 C       -10.8582920146        4.6835678468        0.6512338799
 C        -3.2735713562        7.6703829273        1.7647606437
 C        -5.0758217378        8.0317520472        3.4432800293
 C        -8.3896312054       10.3989222388       -2.4502413996
 C        -9.0573331166       12.2280221312       -0.8243974036
 H       -12.6101126285       10.7267482572       -0.5724948519
 H       -11.8103430806       11.1712493582       -2.1717086941
 H       -11.4679894384       12.0969568668       -0.5800211054
 H        -7.6475232000       11.5622781517        1.2741039132
 H        -6.5941412569       11.5597612525       -0.1173014107
 H        -6.4473942695        9.9007296161        2.4451205255
 H        -5.4803383475       11.2058035558        1.9064069243
 H        -6.9595256348        6.1076127409        2.8862801872
 H        -5.5317276314        5.0922002824        2.9343169949
 H        -7.3814379844        3.5081290001        2.2742947305
 H        -6.5018669948        4.0151223119        0.6275233664
 H        -8.9154177917        1.8326357759       -1.6136972772
 H        -8.7215866225        2.8747443063       -2.9631812751
 H       -11.0404007185        3.7092731914       -2.9663704716
 H       -11.5770657301        2.2075489096       -2.2641762586
 H       -11.2992488875       -1.5132352218       -3.8877091279
 H       -13.1023127967       -1.3599893675       -4.4260249981
 H       -13.3357707477       -2.7545740380       -2.9064746693
 H       -13.3945640868       -1.1561271501       -1.9284273578
 H       -11.2032515277       -1.5412175177        0.7211395474
 H        -9.8365185486       -2.3036890521        1.7731165576
 H       -11.6290661730       -3.5933313714        2.8211396676
 H       -12.8853468171       -2.5038581334        2.1171329265
 H       -14.8630159403        0.5030481262        4.9216158523
 H       -14.6196894683       -0.8779954142        4.2185432989
 H       -13.8000463189        0.5745859086        3.5223909825
 H       -14.0543473468       -3.0095739123        4.7196968078
 H       -13.6690073995       -3.2026273717        6.3981170582
 H       -12.7442427230       -3.9827728395        5.3462980152
 H       -10.8295820601       -3.0405042393        6.1512067958
 H       -11.3552185448       -1.5851635813        7.1100134925
 H       -10.4322818760       -1.3242571287        5.8545751025
 H       -13.6682389958       -3.4313689171       -0.3106016019
 H       -12.9242575378       -4.9934087451       -0.0918969249
 H       -13.4480526309       -4.5649074134       -1.7208410583
 H       -10.1377092056       -5.1238403844       -1.2633256141
 H       -10.0479585533       -3.9058463664       -2.6087200074
 H       -11.3648159239       -5.1183267907       -2.5573366870
 H       -13.8410882651        2.3646720258       -3.3580685935
 H       -13.8891751309        2.3814277155       -5.1362809053
 H       -12.8820625060        3.5769562770       -4.3195736823
 H       -13.2475254536        0.2896186951       -5.9638958346
 H       -11.3113397189        0.3754607895       -6.2335131909
 H       -12.4496053646        1.7631120619       -6.6220491618
 H       -10.3765969562        1.9874814519        0.6915429449
 H       -10.1477361332        2.7748649162        2.2473304743
 H        -8.7150445527        2.0383623056        1.4069860316
 H       -10.7773545885        5.5966352046        1.2861388819
 H       -11.6423367466        4.0905038790        1.1211888352
 H       -11.3694567944        5.1075791736       -0.2100953270
 H        -2.7048799248        8.2672907271        2.5034221587
 H        -2.7935806666        7.7689919271        0.7230135951
 H        -3.0094556569        6.5605069593        1.9658321838
 H        -6.1589304118        8.0893328519        3.7847965593
 H        -4.5176460228        8.9443330404        3.5730625915
 H        -4.4542281329        7.4314993894        4.0697491580
 H        -7.4297030547       10.8636017837       -2.5289460820
 H        -8.9863248537       10.7367355325       -3.2989305389
 H        -8.1355485852        9.3282541723       -2.6112341166
 H        -9.7733726851       12.8389667239       -1.3476125863
 H        -8.1353310979       12.6061439638       -1.1177059581
 H        -9.1863242716       12.4274529676        0.2452483969
 Na       -9.0857908612        7.2515328876       -1.2147851408
