117

 C       -11.2312101472       11.4957411274       -0.7698077626
 C       -10.1049921172       10.3819060819       -1.2425665005
 O       -10.4439576115        9.2186043282       -1.2410481238
 C        -8.6560249714       10.9295203802       -1.4532531713
 C        -7.7595923057       10.0075231406       -0.6299761539
 O        -7.5468212477        8.8341769038       -1.0237718677
 C        -7.1590910491       10.5690072161        0.7338800156
 C        -6.3553093381        9.3933038719        1.6783426793
 C        -5.0900134361        8.8097255181        1.0897679816
 O        -4.6081155954        9.2557478224        0.0648380721
 C        -4.4718967189        7.6622950756        1.8383503625
 C        -5.2589435076        6.2854198329        1.3273906857
 O        -5.1689656801        5.9302581956        0.2203861934
 C        -6.1310322386        5.4159962709        2.2306507988
 C        -6.9187172095        4.2859369615        1.5651663516
 C        -8.2757304362        4.7421649605        0.8309922691
 O        -8.6664949340        5.9407012196        0.8512381290
 C        -9.2398173016        3.8183591883        0.1515442455
 C        -9.2741501390        4.1494106551       -1.5446751663
 O        -9.1356850546        5.2627126726       -1.9114831242
 C        -9.3973616417        3.0712088952       -2.6771393021
 C       -10.8750687059        2.8910912365       -3.3198875803
 C       -10.9855992433        1.6216326011       -4.2766649079
 O        -9.9552828502        0.9944131011       -4.4596991158
 C       -12.4156957544        1.0543169685       -4.4951065284
 C       -12.8030876429        0.0455475483       -3.2926375585
 O       -13.2877429091        0.4911314399       -2.2442179197
 C       -12.5340535199       -1.4585008327       -3.3920192982
 C       -12.7725684320       -2.0920584277       -1.9288734686
 C       -11.4618115255       -2.4168517128       -1.2614210912
 O       -10.4240687466       -1.8008376732       -1.6094506328
 C       -11.4093728670       -3.6282342329       -0.2368649508
 C       -10.5711713297       -3.0637837074        0.9040769791
 O        -9.4485476230       -3.3918143449        1.0926144595
 C       -11.3244805423       -2.0991825164        1.8500066469
 C       -11.4211582083       -2.3135063843        3.3204719170
 C       -12.2795314632       -1.1731448097        3.9043061493
 O       -12.3970909511       -0.1340616151        3.2862032671
 C       -12.9969057890       -1.4816874428        5.3060084668
 C       -13.8238517978       -0.0637708037        5.7731153757
 O       -13.3126790414        0.5842465191        6.6372569003
 C       -14.8292759682        0.4651541240        4.9122670785
 C       -14.1561693793       -2.4721161213        4.9611913567
 C       -12.0843358643       -2.0847682648        6.3797725204
 C       -12.8247720912       -4.1443289272        0.2707168363
 C       -10.5674594993       -4.6970076020       -0.9039815779
 C       -13.6391687892        1.9856607802       -4.6535126624
 C       -12.2307162826        0.0502156859       -5.7765504937
 C        -8.8847096614        2.2924963669        0.5207034353
 C       -10.7717848007        4.0986025500        0.5852556838
 C        -3.1035989322        7.3104918616        1.4180374403
 C        -4.4386663466        7.7640454540        3.3890239759
 C        -8.3861598101       10.6816320990       -3.0107152800
 C        -8.4355070074       12.3596119864       -1.0411665750
 H       -10.8612720895       12.4830857059       -0.8912282126
 H       -11.5190527829       11.2406070473        0.3009222191
 H       -11.9144090348       11.4103872551       -1.5273730808
 H        -7.7931661359       11.0130290534        1.4842836667
 H        -6.3617641614       11.3143945459        0.5717505294
 H        -7.1324269992        8.5729831538        1.8340929228
 H        -6.2858131304        9.8722487092        2.6755082126
 H        -6.7129649101        5.8967379822        3.0137775550
 H        -5.3954494452        4.7870487223        2.8340823289
 H        -7.3033258728        3.6851446076        2.3709051693
 H        -6.3816190736        3.7840575323        0.8310438512
 H        -9.1913577593        2.0130611267       -2.2675749549
 H        -8.8890168378        3.3517580058       -3.5652696089
 H       -11.0955108332        3.8976985168       -3.7307366213
 H       -11.7582301220        3.0164397606       -2.6796880793
 H       -11.5643194523       -1.7726112404       -3.8691211512
 H       -13.3374486415       -1.7182911234       -4.0922830501
 H       -13.5152075138       -2.8908881210       -1.8865968599
 H       -13.4065437008       -1.3931205303       -1.3510582847
 H       -12.2934153794       -2.0100121423        1.4217859375
 H       -10.7000675038       -1.1382554784        1.8019472336
 H       -10.4572953138       -2.3503337578        3.8083022930
 H       -11.8253062812       -3.2688845110        3.7073345125
 H       -15.7225077898       -0.0911921840        5.1535980906
 H       -14.5817566080        0.3858136930        3.8569992811
 H       -15.1615584757        1.5367064173        5.1387991362
 H       -14.8476158934       -2.2712098216        4.1508148104
 H       -14.8064154670       -2.5794289759        5.8560283296
 H       -13.6661725890       -3.4092028092        4.6375461002
 H       -12.4571779587       -1.8794816472        7.4485786292
 H       -10.9721673507       -1.8516770731        6.3664293891
 H       -12.2433675014       -3.1442261298        6.3119819111
 H       -13.4885770701       -3.2854959875        0.6758710287
 H       -12.5884343595       -4.6917846262        1.1421953949
 H       -13.2338395369       -4.8943676017       -0.4482956453
 H        -9.8477633934       -4.4079561629       -1.6366219051
 H       -11.1926690719       -5.4959061465       -1.4261715830
 H        -9.9170157109       -5.0512543051       -0.1422907480
 H       -14.1815522686        2.2990543150       -3.7684418374
 H       -14.3338329783        1.4993911635       -5.2694700715
 H       -13.3447267577        2.8856590897       -5.1776204577
 H       -13.0509946115       -0.6210962085       -5.9059610663
 H       -11.1750494617       -0.4632527067       -5.6316676138
 H       -12.1579254817        0.6046010293       -6.6294236528
 H        -9.8248895438        1.7650225241        0.5190589674
 H        -8.5740362225        2.4767790460        1.5501058483
 H        -8.0320195457        1.9795506484       -0.0576812910
 H       -11.2504945599        3.2140321576        1.0871834540
 H       -11.3882849374        4.2139650154       -0.3058286919
 H       -10.9853151715        4.9572425428        1.1940960100
 H        -2.4447478392        7.7244933290        2.0485505634
 H        -2.7881595445        7.5302679062        0.4230709575
 H        -2.9098375868        6.2318541837        1.5431776936
 H        -5.3554690000        7.8555914443        3.9934496378
 H        -3.8904312492        8.6318951987        3.6727954076
 H        -3.9703816633        6.8356293527        3.6076912430
 H        -7.5756072602       11.2418600204       -3.4384347629
 H        -9.2828460663       10.7973883421       -3.6093046807
 H        -7.9224295148        9.6832096160       -3.0531504871
 H        -8.7177156319       13.2035270848       -1.7912265252
 H        -7.3691884864       12.3179146471       -0.9150708696
 H        -8.7532193197       12.5337703559        0.0698581268
 Na       -8.9516570462        7.3471381000       -0.9098503437
