117

 C       -10.5527261428       12.1635386451       -0.9336681880
 C        -9.7603871869       10.7784323334       -1.1905785741
 O       -10.2633213754        9.6703083869       -0.9785422805
 C        -8.2750119496       10.8392392827       -1.6197574141
 C        -7.5279737587        9.6690641889       -0.9620506562
 O        -7.3039660200        8.6379455789       -1.6443414468
 C        -7.2580003185        9.9040325382        0.5482018241
 C        -6.7361316075        8.6344610959        1.1502085985
 C        -5.1482912275        8.4997086110        1.1709697731
 O        -4.4205507216        9.4294822935        0.9674046257
 C        -4.4516434285        7.0615857199        1.4293597750
 C        -5.2574566849        5.8558744688        0.9709936575
 O        -5.3141853175        5.6431289437       -0.1811985571
 C        -6.2242955891        5.1071915966        2.0594820655
 C        -7.0445515003        4.0089698761        1.4630356559
 C        -8.1632961551        4.6257206761        0.4976431427
 O        -8.2104552413        5.8199521330        0.2229193236
 C        -9.1990379194        3.6498522418       -0.1184902690
 C        -9.5807652022        4.0737947034       -1.6579877606
 O        -9.9075009085        5.2067031896       -2.1060357776
 C        -9.4476230711        2.9269426739       -2.7771042767
 C       -10.2203283499        1.5500504533       -2.6459929941
 C       -10.6833009927        0.9970760733       -4.0831219909
 O        -9.8220237603        0.8017261990       -4.8799578934
 C       -12.1785754102        0.7439022868       -4.1775315479
 C       -12.7007917944       -0.1904471468       -3.0206398375
 O       -13.4967907316        0.2191397515       -2.1742805555
 C       -12.3142801057       -1.6914895615       -3.0208997197
 C       -12.6004808202       -2.1965790739       -1.6637891859
 C       -11.2597377576       -2.4759978402       -0.8635057766
 O       -10.1822117081       -2.0063038037       -1.3315645393
 C       -11.1992217487       -3.3890094550        0.3617550416
 C       -10.7536499421       -2.4649576618        1.6494639990
 O       -10.0449546924       -2.9043734164        2.4923758809
 C       -11.7676823041       -1.3496929684        1.9415799272
 C       -11.4741495217       -0.7314183757        3.3496932063
 C       -12.6496364053        0.0826026496        3.8837327802
 O       -12.9105349992        1.2402415411        3.5835984665
 C       -13.6335753948       -0.8323964652        4.8899459567
 C       -14.3320127884        0.1247403308        6.0166558457
 O       -13.6900638954        0.6578295231        6.8726621784
 C       -15.7606282266        0.2143722641        6.1103217989
 C       -14.6549979243       -1.6243443738        3.9614898149
 C       -12.8168078845       -1.8382649903        5.6041631672
 C       -12.5658134432       -4.1063857591        0.8016482801
 C       -10.0725603746       -4.4087565979        0.0245982589
 C       -12.9956029840        1.9590488027       -4.1332876180
 C       -12.3774336512       -0.1535152776       -5.5148344887
 C        -8.5746276005        2.2932359741       -0.0631790185
 C       -10.5581284220        3.5940817763        0.6734202030
 C        -3.0517734399        7.2092118388        0.6660178397
 C        -4.1796613545        7.1442054328        3.0132624027
 C        -8.4084499243       10.5008872929       -3.3217082074
 C        -7.4869484312       12.1766419682       -1.4138434415
 H       -11.1011930449       12.1796265920        0.0460234362
 H       -11.3507064308       11.9947124866       -1.7465204170
 H       -10.0016801825       13.0797580704       -1.2167146437
 H        -8.1374270916       10.2339880311        1.0106026272
 H        -6.5126292666       10.7125665150        0.8889987204
 H        -7.1972990685        7.8371676977        0.5221236087
 H        -6.9203564496        8.4656906956        2.1513269102
 H        -6.7933310501        5.8209002390        2.6108203422
 H        -5.7403223900        4.5911067628        2.8846349282
 H        -7.6494204519        3.3915930539        2.1726330096
 H        -6.4930511042        3.3066701630        0.7823095699
 H        -8.2822354391        2.8306548551       -2.9159446041
 H        -9.8098024348        3.1627940696       -3.7781622912
 H       -10.9646656230        1.8151561194       -1.8862361936
 H        -9.8694388089        0.6860058748       -2.1112805999
 H       -11.4114443236       -1.9354977409       -3.5612821596
 H       -13.0941653202       -2.1740460463       -3.6604241614
 H       -13.2499944989       -3.0836327829       -1.5815120904
 H       -13.3561681627       -1.5252105380       -1.1322788521
 H       -12.7546040470       -1.6312136999        1.5236370427
 H       -11.6608514967       -0.5974697233        1.1339266648
 H       -10.5209734724       -0.1372764764        3.3082582216
 H       -11.3327495548       -1.5627488937        4.0420064684
 H       -16.2410476842       -0.7217660211        6.3449852019
 H       -16.2219003868        0.4319639774        5.1897115822
 H       -16.1007344535        0.9120085849        6.8762817404
 H       -15.3149867869       -0.8675781508        3.4973669789
 H       -15.2686627414       -2.2494371658        4.6358157324
 H       -14.3535766363       -2.4682060557        3.2702524006
 H       -11.9098481922       -1.3365095013        6.0598441235
 H       -12.4633928483       -2.6656908470        4.9624334227
 H       -13.3780103159       -2.2521472762        6.3684997583
 H       -13.4482046553       -3.5043089426        0.9759731718
 H       -12.3594552891       -4.6011096348        1.6996785910
 H       -12.9189475750       -4.8452693361        0.0462210473
 H        -9.4056611371       -3.9692760025       -0.6567097360
 H       -10.3073579352       -5.4474982547       -0.4257243122
 H        -9.6361776571       -4.7916613195        0.9137654216
 H       -13.1156551399        2.3820361937       -3.1136385951
 H       -13.9973280757        1.7777466838       -4.4974667323
 H       -12.6540961642        2.8038021299       -4.7816031987
 H       -13.3615010002       -0.7450751235       -5.6212601623
 H       -11.5887265625       -0.9294722912       -5.6864895667
 H       -12.3059680969        0.5377871732       -6.3660125522
 H        -9.4047346767        1.6082784151       -0.4286276494
 H        -8.3064679724        2.0520808849        0.9471025560
 H        -7.8445300871        2.4765813871       -0.7712005550
 H       -10.3212564778        3.2766790892        1.7033183567
 H       -11.2620521892        2.9160873164        0.2037621188
 H       -11.0653985404        4.5330563823        0.7294565544
 H        -2.3341135588        7.8650600895        1.1939091025
 H        -3.1681004204        7.7113286472       -0.3059996802
 H        -2.4871853666        6.2485819822        0.5611936960
 H        -5.1132888976        7.3595645077        3.5867282595
 H        -3.3052298536        7.7348349343        3.1584043223
 H        -3.7581429119        6.2132619338        3.3248381871
 H        -7.4871414688       10.9694469733       -3.6427067088
 H        -9.2154943263       10.9624745836       -3.8823226436
 H        -8.5990361475        9.4392780410       -3.5960542510
 H        -7.6695020915       12.8068601196       -2.2385399595
 H        -6.4957171100       11.9913698924       -1.3068709425
 H        -7.8189084806       12.6013989138       -0.5365418289
 Na       -9.0478867453        7.4733844988       -1.5606401166
