117

 C       -10.4768042718       12.1042326485       -1.1355526776
 C        -9.8088899746       10.7596324077       -1.2447691766
 O       -10.3159355295        9.6402990909       -1.3010879569
 C        -8.1976607569       10.6473138407       -1.7403758422
 C        -7.4115266240        9.4459841503       -1.0035164577
 O        -7.1517356986        8.4520986426       -1.6267150719
 C        -6.8799417379        9.8869916208        0.4021545072
 C        -6.5625491354        8.5550017360        1.2163059551
 C        -5.0377006220        8.5126485805        1.2559176073
 O        -4.3457491401        9.5021689526        1.1351029177
 C        -4.2645949271        7.0907441797        1.3846724165
 C        -5.3181016231        5.8947513813        0.9503674731
 O        -5.3126709935        5.4959762271       -0.2247230553
 C        -6.0803813194        5.1736367479        2.0378430912
 C        -7.1410940636        4.2262894704        1.4994309323
 C        -8.1089583707        4.6826444686        0.2949473159
 O        -8.3125198566        5.8224205215        0.0163401785
 C        -9.0976399795        3.5831410891       -0.2910062582
 C        -9.5443598349        3.9562553774       -1.7441276948
 O        -9.9519183863        5.0479721332       -1.8292269121
 C        -9.4208826573        2.8955437375       -3.0157366596
 C       -10.1862765375        1.5228229797       -2.7796961368
 C       -10.6985573364        0.9551690662       -4.0835625111
 O        -9.8863002648        0.7572259989       -5.0126549331
 C       -12.2209706856        0.6016368413       -4.2683853532
 C       -12.6694229757       -0.2885582527       -2.9319959063
 O       -13.3157848580        0.2594699513       -2.0490619331
 C       -12.3045931834       -1.8109845898       -2.9470061907
 C       -12.5142226468       -2.6384669797       -1.6587815602
 C       -11.2643771780       -2.4823596061       -0.7043485550
 O       -10.3696547398       -1.7690075548       -0.9606956433
 C       -11.0800911685       -3.3986420366        0.6441466714
 C       -10.9326282713       -2.4052074840        1.8458856684
 O       -10.1848970326       -2.6513129544        2.7932254302
 C       -11.8397876534       -1.1285684378        1.9589627069
 C       -11.4774217772       -0.3326713110        3.1736339948
 C       -12.7665880088        0.3488266030        3.9439532722
 O       -13.1801552703        1.4214729666        3.5919659002
 C       -13.7114661329       -0.6197661646        4.7574206444
 C       -14.4048722173        0.1892803047        5.9645457494
 O       -13.7349208196        0.6612352122        6.8541083276
 C       -15.8949212807        0.1337099270        6.2464366071
 C       -14.8900874916       -1.0334496433        3.8382442109
 C       -13.0289785514       -1.7818685008        5.6073042413
 C       -12.3911424442       -4.2836323939        0.7959692353
 C        -9.8721397213       -4.3169912437        0.6713832461
 C       -12.8447617766        2.0843963176       -4.2517187817
 C       -12.5718760039       -0.0294620065       -5.5913637431
 C        -8.6895019860        1.9711642824       -0.0869987493
 C       -10.4229241227        3.7662801934        0.5621977063
 C        -3.0356663110        6.9674371842        0.5358697693
 C        -3.9078082098        6.9107117802        2.8697941424
 C        -8.3800252635       10.5132409726       -3.2492466194
 C        -7.5336845241       12.0312668281       -1.5079304285
 H       -11.2431882185       11.8406638230       -0.4627354968
 H       -10.8241549206       12.5840574739       -2.0605845530
 H        -9.7496376569       12.7255131721       -0.7256016658
 H        -7.6204787811       10.4642168556        1.0634333507
 H        -6.0777347258       10.5791326483        0.3336971752
 H        -6.6434709180        7.7616883586        0.4481292141
 H        -7.1414698383        8.3154105350        2.2023522814
 H        -6.3836660270        5.8491305771        2.9099468562
 H        -5.4790006277        4.4204533595        2.6201269824
 H        -7.8850477132        3.9633596932        2.1845009270
 H        -6.7932282896        3.2757954377        1.1809917213
 H        -8.4938129118        2.5293798341       -3.3864309042
 H        -9.8342375037        3.3811272958       -3.8978069033
 H       -10.9039188289        1.5966747189       -1.9567688704
 H        -9.4512530673        0.7364012174       -2.3783978560
 H       -11.2345681181       -1.7645301811       -3.2843949919
 H       -12.7653183777       -2.2205253451       -3.8818687270
 H       -12.5950779685       -3.7501997769       -1.5698927899
 H       -13.3638880687       -2.4276231564       -1.0375512777
 H       -12.8115484251       -1.6082921135        2.1001328686
 H       -12.0683303626       -0.6771715760        1.0150218029
 H       -10.8873978701        0.4950732254        2.8836185902
 H       -10.8217692740       -0.9685955048        3.7631649573
 H       -16.2360622576       -0.8567900917        6.4901712483
 H       -16.7035803658        0.3262359270        5.4835387304
 H       -16.0409825944        0.6879389915        7.1849931320
 H       -15.2511027081       -0.2723123584        3.1851808536
 H       -15.6354849016       -1.5112941324        4.3897759993
 H       -14.4991303472       -1.8347434816        3.3351412992
 H       -12.6332627221       -1.4486938942        6.5141301388
 H       -12.2315742452       -2.1880451264        5.0504921505
 H       -13.7531150577       -2.6453278899        5.6451717086
 H       -13.4393758326       -3.7980068811        0.8059339080
 H       -12.3774902906       -4.7215422576        1.8378957643
 H       -12.3664196902       -5.0981432486        0.0743718954
 H        -8.9269771796       -3.7785213491        0.3681169814
 H        -9.9567780542       -5.1527878682        0.1055853328
 H        -9.7393938641       -4.7985559310        1.6457678501
 H       -12.4582646898        2.6727160465       -3.3969922913
 H       -13.9186887551        2.3059323685       -4.3194432674
 H       -12.4235579834        2.6071701459       -5.0847427729
 H       -13.5569368443        0.0364341557       -5.7878754190
 H       -12.3237486369       -1.1267321937       -5.8116145824
 H       -11.9681609283        0.4396244456       -6.3468673547
 H        -9.4893026587        1.4003422567       -0.3064598222
 H        -8.4346540432        1.9245209938        0.9682565475
 H        -7.8242061086        1.9113541725       -0.8139902320
 H       -10.5706030617        3.0886748237        1.3943313678
 H       -11.2553175008        3.6402866332       -0.2152319239
 H       -10.4928244436        4.8177845840        0.9108220615
 H        -2.2646663957        7.6588990443        0.7765927614
 H        -3.2595861660        7.1982857369       -0.5461433960
 H        -2.5043701314        5.9821067681        0.6603947782
 H        -4.5969823116        6.3568179701        3.4134516351
 H        -3.6464534299        7.8695382118        3.2836548270
 H        -2.8448251021        6.5390485721        3.0328627812
 H        -7.4943307278       10.8496433206       -3.7742464749
 H        -9.2203457176       11.0705770292       -3.6366557200
 H        -8.7222697807        9.5450983771       -3.4594326404
 H        -8.0848459725       12.9086903787       -1.9605309601
 H        -6.5002534021       11.8936502203       -1.9805637166
 H        -7.2676509657       12.1916255383       -0.3943135673
 Na       -9.4167580545        7.3514182596       -1.4552893959
