117

 C       -10.5041290792       11.7829118826       -1.0917714637
 C        -9.7127931196       10.4565817100       -1.5489873943
 O       -10.1601181613        9.3629959831       -1.2959192245
 C        -8.1538501202       10.5933975139       -2.0102242309
 C        -7.4012127546        9.4788963267       -1.1311679923
 O        -7.6677133590        8.3651742585       -1.6042538523
 C        -6.8778283996        9.8595772786        0.4038606689
 C        -6.3460521139        8.5532232165        1.0763904419
 C        -4.7606903794        8.2906445199        1.2937080578
 O        -4.0658986984        9.2711366088        1.3451135769
 C        -4.1377704531        6.8593879002        1.3682997111
 C        -5.2559411626        5.8512792139        0.9244708218
 O        -5.3093942804        5.4877829660       -0.2330487484
 C        -6.3617383495        5.3605027629        1.9555844927
 C        -7.1135964038        4.1159844307        1.3483364302
 C        -8.1330727441        4.6444933357        0.2718689285
 O        -8.0910680092        5.8514061475        0.0251695327
 C        -9.2230072216        3.6389313617       -0.2642964712
 C        -9.5560001689        3.8409897753       -1.9314357739
 O        -9.9178738912        5.0556765176       -2.1517743036
 C        -9.4545881414        2.8359394378       -3.0093546284
 C       -10.1253226205        1.4283257307       -2.8283043594
 C       -10.6608537237        0.9291946979       -4.1397489089
 O        -9.9435907049        0.6819932872       -5.0523979021
 C       -12.2000499467        0.5476830281       -4.1165446786
 C       -12.5297353352       -0.2790049607       -2.8837182869
 O       -13.0456155620        0.2386274868       -1.9542654849
 C       -12.0888335336       -1.8632399844       -2.9401714728
 C       -12.2415291386       -2.6179845954       -1.7113836413
 C       -11.1929869395       -2.3421214281       -0.5244143939
 O       -10.3425635301       -1.4351882500       -0.5632458681
 C       -11.1992456052       -3.3115260429        0.7883576918
 C       -11.1210169022       -2.3532359716        2.1176724918
 O       -10.2887206348       -2.4961015610        2.9677474769
 C       -11.9634359686       -0.9999014864        2.0396843634
 C       -11.7710554090        0.0606363910        3.2554629328
 C       -13.0074140090        0.5486420350        4.0287180624
 O       -13.4361443090        1.6887092602        3.8144050985
 C       -13.9442138208       -0.4636752203        4.8027202122
 C       -14.4388333386        0.2958705327        6.0298409849
 O       -13.6494194163        0.9409302320        6.6886188071
 C       -15.9503993011        0.2358820867        6.3007645897
 C       -15.1327539183       -0.9067121098        3.7189415158
 C       -13.1747582398       -1.7658291296        5.0128740417
 C       -12.2979290957       -4.2933994694        0.9398742843
 C        -9.8046484931       -4.0333483170        0.7580171955
 C       -13.0294610056        1.8793618575       -4.0061187607
 C       -12.5547285261       -0.0739501503       -5.4544667751
 C        -8.5590584674        2.1263040985       -0.0622816942
 C       -10.5191932770        3.7849213292        0.6661539660
 C        -2.9638107563        6.8645876552        0.2881923566
 C        -3.5893271465        6.7894679469        2.7769489164
 C        -7.9896334424       10.2808213937       -3.4138627874
 C        -7.5802455855       12.0856138466       -1.6306764973
 H       -11.6352893878       11.7091120130       -1.2392176567
 H       -10.0222964514       12.6042156772       -1.6353331310
 H       -10.1585888013       12.0965089632       -0.0041286293
 H        -7.5546206288       10.2068195657        1.0790831395
 H        -6.1348167358       10.6861464775        0.2221939231
 H        -6.7252178148        7.6483476102        0.5748387895
 H        -6.7208974251        8.5518328825        2.0507406332
 H        -7.0523428891        6.1121565674        2.1376451701
 H        -6.0531410988        5.0821628212        2.9223216652
 H        -7.7166547555        3.4060046049        1.9874893349
 H        -6.5735418847        3.4204151573        0.6877341530
 H        -8.4339714208        2.4664505895       -3.1642142900
 H        -9.5525872449        3.2135929457       -4.0871329070
 H       -11.0396873045        1.5944372107       -2.1792093648
 H        -9.4135001477        0.7641521277       -2.3205673031
 H       -11.1386355389       -1.9959767840       -3.4467285383
 H       -12.6815550486       -2.3356079429       -3.6676142275
 H       -12.2381095802       -3.7025710649       -1.7264384220
 H       -13.1558690314       -2.4943717197       -1.0512953685
 H       -13.0500470239       -1.2649113206        1.8396640043
 H       -11.6354632263       -0.5649941675        1.0284043113
 H       -11.2558266249        0.9894274252        2.8277882895
 H       -11.1066569026       -0.3195562757        4.0837228665
 H       -16.4321676252       -0.7975466402        6.2774055839
 H       -16.4832980647        0.5531081131        5.4585370578
 H       -16.1826563939        0.7087862490        7.2253007591
 H       -15.8173176575       -0.0708868572        3.4564995629
 H       -15.7918078045       -1.7712309629        4.1488719749
 H       -14.4995170872       -1.2723590572        2.8294942174
 H       -12.1101405188       -1.6561723720        5.3933491287
 H       -13.1147529137       -2.2787015651        3.9920349418
 H       -13.7397813161       -2.4881646639        5.5308906298
 H       -13.1547554973       -3.7975995193        1.0081938135
 H       -12.3327597808       -4.9582420568        1.7870407626
 H       -12.2999409553       -4.9038227610        0.0441756575
 H        -9.0066728606       -3.4084657390        1.1406177708
 H        -9.5160910240       -4.5532125663       -0.2381704281
 H        -9.7687792569       -4.9497382952        1.4179652621
 H       -12.8708825249        2.5963340679       -3.2790718635
 H       -14.0413760129        1.5243282051       -3.9488848490
 H       -12.9832394512        2.4362752985       -4.9521755812
 H       -13.6714221291       -0.1379920502       -5.7546432110
 H       -12.2765224942       -1.0577333785       -5.4526027318
 H       -11.8783627215        0.2080044786       -6.2920427184
 H        -9.5436581905        1.5756706987       -0.1521363034
 H        -8.2122494699        2.0670701212        0.9394368207
 H        -7.8690431839        1.9158783837       -0.8054058168
 H       -10.2335336526        3.8857268892        1.7378102170
 H       -11.2701349700        3.0818555080        0.5739128604
 H       -10.8642039431        4.7946739645        0.3922841677
 H        -2.4987495997        7.8730480329        0.3306265399
 H        -3.1455243366        6.6004191363       -0.6883136303
 H        -2.2176538525        6.3034402325        0.6648967128
 H        -4.4355233255        6.8017027549        3.5822136753
 H        -2.9056891096        7.6509991121        2.8856382940
 H        -2.9627262452        6.0134683590        3.0408467939
 H        -7.0111789324        9.8488472248       -3.5482520068
 H        -8.1521912556       11.0836548587       -4.1432147277
 H        -8.8024760153        9.5458436700       -3.6518932493
 H        -8.1824196949       12.6941040317       -2.2614133016
 H        -6.5339820374       12.1942486389       -1.9180135284
 H        -7.6422425585       12.4183183780       -0.6378786548
 Na       -9.6756762233        7.1512363106       -1.3156360336
