117

 C       -10.6637572450       11.4614011866       -1.6865822761
 C        -9.8841660411       10.0011010492       -1.8856078347
 O       -10.5735055189        8.9513655513       -1.9123357340
 C        -8.2133137855       10.1138719514       -2.1898025833
 C        -7.5148565885        9.1284880589       -1.1903069387
 O        -7.8013183240        7.9217524787       -1.2488237301
 C        -6.0210086122        9.2714871880       -0.6631965379
 C        -5.8671701253        8.5335855607        0.7488803519
 C        -4.2950883912        8.1191059875        1.1618930421
 O        -3.6486992220        9.0579392203        1.5314563316
 C        -3.7395556319        6.5356288759        1.1394834917
 C        -4.9258814516        5.5956290076        0.7007687628
 O        -5.0207740673        5.1628897214       -0.3982188526
 C        -5.9556974541        5.0927019355        1.7707242465
 C        -6.8980616085        4.0316666351        1.1392982296
 C        -8.2145807670        4.5206892039        0.4364663306
 O        -8.5691310399        5.7399418340        0.4641734195
 C        -9.2403829375        3.5575247586       -0.0886036869
 C        -9.0835220727        3.7039836667       -1.6574913674
 O        -9.1292314713        4.7528370127       -2.1879576061
 C        -9.1253752137        2.4257571179       -2.6292284637
 C       -10.6219254746        1.9381210825       -2.7871853473
 C       -10.8914408363        1.1288361993       -3.9816039102
 O       -10.1617702579        1.0308440349       -4.9203779245
 C       -12.2756294290        0.3255490543       -4.0112407843
 C       -12.2174973807       -0.6525391343       -2.7258860005
 O       -12.8203217126       -0.3931804407       -1.6795520043
 C       -11.2983911845       -1.9559968572       -2.8890379681
 C       -11.1415740033       -2.7925678071       -1.6186305399
 C       -10.7717539733       -1.9353972113       -0.2040192864
 O       -10.1993104391       -0.9252000095       -0.2696889189
 C       -11.0900253990       -2.6156015824        1.2531865520
 C       -11.2717589179       -1.5390899664        2.3360569505
 O       -10.7117123987       -1.4312669313        3.4148476493
 C       -12.1164903469       -0.2221519069        1.9931801791
 C       -12.2462777958        0.6573753486        3.3269190141
 C       -13.7051518424        1.0550740418        3.6852333744
 O       -14.1288633917        2.1277698827        3.2293423153
 C       -14.6596931826        0.0747931414        4.5595032321
 C       -14.6655007850        0.5646291498        6.1086070906
 O       -13.5905671706        0.7672232990        6.6114600479
 C       -15.9651568666        0.5157164757        6.8783977376
 C       -16.2121064941        0.3012372577        4.0465156065
 C       -14.1595980847       -1.3785679165        4.5150852898
 C       -12.1121528896       -3.7911125608        1.2647748468
 C        -9.7204789472       -3.2393583136        1.6710225579
 C       -13.4541275651        1.3524043373       -3.8062925470
 C       -12.4735392018       -0.3786702655       -5.2922775844
 C        -8.8062618173        2.0395900664        0.2798654365
 C       -10.6918289169        3.8583274410        0.3516450711
 C        -2.6210129469        6.4854061891        0.0543965579
 C        -3.1496138474        6.1387433057        2.4225520690
 C        -8.1464089442        9.9655185271       -3.6863390173
 C        -7.7392152797       11.5864553975       -1.7388046550
 H       -10.3843847002       12.2160790573       -2.4957387290
 H       -10.3384742515       11.8076985530       -0.6881691882
 H       -11.7064894593       11.2629703816       -1.8215759290
 H        -5.8359787904       10.3743437050       -0.5344634819
 H        -5.4753483725        8.9131375673       -1.5417951655
 H        -6.4128424612        7.5985988536        0.7608437671
 H        -6.2458018906        9.1740705503        1.5912363862
 H        -6.6589939150        5.9674940764        1.9302713436
 H        -5.6972298876        4.6456410471        2.7151626772
 H        -7.4035579742        3.5254260732        1.9437006115
 H        -6.4031139102        3.2641598344        0.4870972716
 H        -8.3774745058        1.5703453517       -2.4321051800
 H        -8.6206898807        2.8504065090       -3.4498576842
 H       -11.0930594024        2.8904069809       -2.9138067755
 H       -10.7293005355        1.3643070314       -1.8644434449
 H       -10.3619255619       -1.7718652470       -3.4263757118
 H       -12.0228462144       -2.5518093816       -3.6147345858
 H       -10.1057142988       -3.0990058846       -1.7719460588
 H       -11.8936948261       -3.4807583134       -1.3697498679
 H       -13.0332865846       -0.6102841617        1.5948151267
 H       -11.3995098184        0.2280733061        1.4243163057
 H       -11.6172961036        1.5476825685        3.2132267995
 H       -11.8993795466       -0.0318130832        4.1417599385
 H       -16.4879673293       -0.4155308082        6.7740162341
 H       -16.6112381313        1.3929675467        6.7579567514
 H       -15.6830400728        0.5783799007        7.9163967239
 H       -16.5393771716        1.3721135888        3.9943542808
 H       -16.8301379421       -0.3220650775        4.8029814985
 H       -16.4443652413       -0.2984811806        3.0561637322
 H       -13.1306485031       -1.6699207809        4.9089961628
 H       -14.1393281863       -1.4581672967        3.4551657155
 H       -14.9460428860       -2.0122200840        4.9770367714
 H       -13.1841636832       -3.5818383041        1.1155833823
 H       -11.9715179408       -4.1958688016        2.2159823301
 H       -11.9496114930       -4.6707053623        0.5737932758
 H        -8.9194836375       -2.5519896485        1.6704890647
 H        -9.4197794430       -4.0290796940        0.9232235877
 H        -9.6227578550       -3.4976982846        2.6952652980
 H       -13.5595376513        1.8099255744       -2.7650325830
 H       -14.4256439546        0.9830794962       -4.0535186355
 H       -13.2506581292        2.1325971130       -4.5046668730
 H       -13.5576051910       -0.7026726809       -5.4885200933
 H       -11.9034829074       -1.2594971629       -5.4684989090
 H       -12.3942966167        0.2548995114       -6.1475174941
 H        -9.5772107150        1.5977546357       -0.4683771256
 H        -9.0313105707        1.6935241649        1.2892186067
 H        -7.8102135652        1.7712070593        0.0070599037
 H       -11.1591428250        4.3323902932       -0.4823014522
 H       -10.8122405609        4.4884609811        1.2546128665
 H       -11.1928304033        2.9211668148        0.3776681817
 H        -1.8682687730        7.3850628777        0.2030974768
 H        -3.0560436808        6.6349929978       -0.9685416665
 H        -2.1236339098        5.5114188472        0.0024076139
 H        -3.7332799112        5.8605438596        3.2801818469
 H        -2.5542267898        6.9173854104        2.8392857764
 H        -2.5590133192        5.2195544904        2.1840471482
 H        -7.1019198098       10.0008805653       -4.0475048263
 H        -8.6153333128       10.8724526202       -4.0460863482
 H        -8.4716235194        8.9809471281       -4.0301405479
 H        -7.9570086450       12.3451753939       -2.4405815503
 H        -6.7181785115       11.5271536817       -1.9124115692
 H        -7.9575210001       11.9831428428       -0.8246672390
 Na       -9.7888217473        6.8127658097       -1.5133752020
