117

 C       -10.6755644149       10.9127830737       -1.8892409308
 C        -9.6138839897        9.6226665577       -1.7485910776
 O       -10.1031689531        8.5142644610       -1.7217198704
 C        -8.0639887466        9.9673787348       -2.1965726586
 C        -7.2787792119        8.8555481061       -1.5085768335
 O        -7.7348738448        7.7409970104       -1.5069625910
 C        -5.8728230142        9.1407082317       -0.8729342822
 C        -5.8362753562        8.1228870724        0.2850122753
 C        -4.3753412927        7.9881327595        0.8119608641
 O        -3.7653969944        8.9678180485        1.2012897514
 C        -3.7927496457        6.5496406397        0.8188266856
 C        -4.8958685747        5.4971696422        0.3149373693
 O        -4.8727145137        5.0037561180       -0.7910813466
 C        -5.8246481511        5.0244709437        1.4941109509
 C        -6.9059653009        3.9770003953        1.2141145095
 C        -8.3232803216        4.4605890388        0.7200261941
 O        -8.5204719051        5.7387714295        0.9159462973
 C        -9.3288574919        3.5180627284        0.1532639314
 C        -9.0673352423        3.4916442797       -1.5083754581
 O        -8.5987018517        4.4510897064       -2.0454259095
 C        -9.3355256775        2.2080440337       -2.4122538783
 C       -10.9311095114        2.1528146486       -2.6570259396
 C       -11.1521461633        1.1266428802       -3.8543610143
 O       -10.2481377333        1.0843365670       -4.6362101886
 C       -12.3498558078        0.1160899661       -3.8571788925
 C       -12.1016280584       -0.8304732654       -2.6949051765
 O       -13.0218679179       -1.0354387421       -1.9459950804
 C       -10.8213673489       -1.6693972873       -2.5052999267
 C       -10.8481071763       -2.4891167997       -1.2176680301
 C       -10.5971893461       -1.4427160291       -0.0221726799
 O        -9.9157707851       -0.4980477897       -0.2453047758
 C       -10.8868751421       -1.9792636385        1.4180944613
 C       -11.1076959856       -0.9787877501        2.6186931597
 O       -10.5696198976       -0.9912195300        3.7124812495
 C       -12.3372504800       -0.0749850696        2.3353793352
 C       -12.7509416758        0.8925643596        3.4682827052
 C       -14.2655100822        1.1874470352        3.3928673070
 O       -14.5465114179        2.1228923651        2.6086379930
 C       -15.2070869262        0.4597152016        4.3831170946
 C       -14.7047949621        0.7511932925        5.9380846828
 O       -13.5207816114        0.8549892978        6.0798820927
 C       -15.6870406886        0.8854834169        7.1027453884
 C       -16.6021331284        1.0910489267        4.2157716562
 C       -15.1606814011       -1.1791514882        4.2170022698
 C       -12.1916918950       -2.9319161688        1.4127789307
 C        -9.6553093664       -2.8858270553        1.7733443371
 C       -13.8028086687        0.8013505019       -3.7334197998
 C       -12.1599098849       -0.8000885230       -5.1330219582
 C        -9.1488915217        2.0299573079        0.6739338372
 C       -10.8209555836        4.0539613377        0.2029261302
 C        -2.5379329888        6.4024770898       -0.2226189653
 C        -3.1919825247        6.3033994637        2.2612404843
 C        -7.7957998171        9.6159901800       -3.7837079053
 C        -7.5153040726       11.3665462012       -1.9632869928
 H       -10.2556023872       11.9227842707       -1.8189310586
 H       -11.3769210540       10.9794783836       -1.0196082082
 H       -11.1813630848       10.5485610982       -2.8644113982
 H        -5.7542464200       10.1438260155       -0.5519253967
 H        -5.0576354826        8.8429489144       -1.5500034055
 H        -6.0904133777        7.1649413968       -0.1514715625
 H        -6.5612834423        8.3184828353        1.0378035262
 H        -6.3177603677        5.8838517185        1.9286006336
 H        -5.3115278180        4.6418148361        2.3236806748
 H        -7.1489083634        3.4801348101        2.1490948945
 H        -6.4771562265        3.2027529286        0.5158590410
 H        -8.9608293885        1.2542939382       -1.8690319389
 H        -8.9713114775        2.2946160366       -3.4838850073
 H       -11.2604812203        3.1287192391       -3.0748564405
 H       -11.4155735171        1.8073888860       -1.7318419728
 H        -9.9995783745       -1.0306592930       -2.6851794762
 H       -10.9379733175       -2.5271441845       -3.2955126268
 H        -9.8819688499       -2.9204667675       -1.2177127714
 H       -11.7288587772       -3.0611904445       -1.2485809422
 H       -13.2462126106       -0.7361380629        2.2451784651
 H       -12.0091260411        0.4553991098        1.4585999981
 H       -12.1990464125        1.8874480627        3.3720668266
 H       -12.5509486204        0.5426630967        4.5212991406
 H       -16.0175764586       -0.1795735127        7.3156763071
 H       -16.4312298795        1.6110356063        6.9905905166
 H       -15.2103281953        1.1810208397        7.9841701606
 H       -16.1772776471        2.1316593821        4.3930735325
 H       -17.3122817917        0.8124477708        5.0947012667
 H       -17.2258082668        1.0742112190        3.2935321679
 H       -14.1296421460       -1.6276039910        4.5389601128
 H       -15.3708366498       -1.3442443963        3.1542052026
 H       -15.9260769851       -1.6794383959        4.8072807568
 H       -13.0740678640       -2.8153532882        0.9632220966
 H       -12.3013690154       -3.2248257799        2.4430900307
 H       -11.7842917832       -3.7952741418        0.8519086007
 H        -8.7504196237       -2.3263911216        1.8352585239
 H        -9.3060261855       -3.6288074519        0.9062439966
 H        -9.7220504715       -3.5268334677        2.6811427135
 H       -13.7364511315        1.2684502656       -2.7534750628
 H       -14.5819091334        0.0897593637       -3.6733634221
 H       -14.0852716301        1.4922473778       -4.5162255777
 H       -13.1404868129       -0.9951493463       -5.7292508031
 H       -11.8669008491       -1.7703899409       -4.9589184255
 H       -11.5267256649       -0.3347468032       -5.9186937809
 H        -9.6379369800        1.3294967218       -0.0163097104
 H        -9.3758947681        1.8974992499        1.7441846465
 H        -8.1108882815        1.8692616314        0.5496189338
 H       -11.5454707077        3.2521842359        0.5370287618
 H       -11.1280696890        4.5034130098       -0.7551176564
 H       -10.7872146258        4.9059972711        0.9030116765
 H        -1.7129225476        6.9844209912        0.1805674740
 H        -2.9059893419        6.8940936179       -1.1095134265
 H        -2.2038732764        5.4656903704       -0.5123655888
 H        -3.7421360203        6.5935086411        3.2015655590
 H        -2.3997086727        7.0256097799        2.2256418825
 H        -2.6342884345        5.3797909290        2.3554320498
 H        -6.7965522540        9.8226840645       -4.1422397821
 H        -8.4703532107       10.2549579878       -4.3048417968
 H        -7.9599804066        8.5400224874       -3.9733547858
 H        -8.1620878750       12.1098097633       -2.3158845756
 H        -6.5226441674       11.6346574218       -2.3868623514
 H        -7.5159931894       11.6327944464       -0.9612168528
 Na       -9.4450146283        6.3317192972       -1.0903705740
