117

 C       -10.6056386594       10.7856487266       -1.9333974505
 C        -9.5543533515        9.6344601624       -2.0776069873
 O        -9.9854023181        8.5938315334       -1.6126654128
 C        -8.0814052187        9.8683937236       -2.4215347257
 C        -7.2949957882        8.7806857852       -1.6544818389
 O        -7.5157073928        7.6002674385       -1.6941421578
 C        -6.0270002146        9.0720343033       -0.7820512391
 C        -5.7814498161        8.0693861065        0.3991951701
 C        -4.3055413401        7.9399244610        0.8230965070
 O        -3.6993031403        8.9642356773        1.0957327194
 C        -3.7424015047        6.5444069072        0.7543030208
 C        -4.7238106089        5.4096569234        0.3809205370
 O        -4.7656443672        5.0239425702       -0.8151972197
 C        -5.7974895802        4.9625692094        1.4086529043
 C        -6.8718557204        3.9461519688        1.3258092653
 C        -8.2290781339        4.4981180222        0.7981580446
 O        -8.5754071573        5.6995535988        0.9647656533
 C        -9.2182564567        3.5533413989        0.0623833450
 C        -9.0639199258        3.3745845465       -1.3988623031
 O        -8.8386500682        4.4161240695       -2.0526025290
 C        -9.3055692862        2.1559083851       -2.2182378088
 C       -10.8946080597        2.0992458808       -2.6045504927
 C       -11.1221132477        1.0406173400       -3.8375558156
 O       -10.3345176465        1.0063373241       -4.7790637558
 C       -12.3277411359        0.0762087970       -3.7995271055
 C       -12.2806421163       -0.9584710547       -2.6131251683
 O       -13.1567915648       -1.1671005583       -1.8321853905
 C       -10.8314499856       -1.6777802597       -2.5100532440
 C       -10.5785188816       -2.4462146236       -1.1286895237
 C       -10.4896328655       -1.4484887771        0.0627213056
 O        -9.9155964889       -0.3451878937       -0.0549273324
 C       -10.9106021161       -2.0051691430        1.5036169165
 C       -11.2287160323       -0.8927258613        2.6067418600
 O       -10.5057482683       -0.7616264016        3.5614969220
 C       -12.5414610670       -0.0790966173        2.3808403762
 C       -12.7245030567        0.8289545625        3.5202364595
 C       -14.2533985646        1.3056356479        3.3708092424
 O       -14.6530772078        1.9916787672        2.4817577392
 C       -15.2549664555        0.6197715831        4.3533837090
 C       -14.6642531521        0.8111406447        5.8065716011
 O       -13.4720876520        0.9204215144        6.0609192939
 C       -15.6030589352        0.9303967793        6.9262952500
 C       -16.7167388216        1.1857250045        4.3178733907
 C       -15.4550937222       -0.9552346791        4.1445439027
 C       -12.1403149713       -2.9110695972        1.4496474108
 C        -9.6712531351       -2.7248595409        1.9525740331
 C       -13.6525927193        0.7493952854       -3.8260864448
 C       -12.1860823692       -0.7582719264       -5.1842026566
 C        -9.2713636485        2.2147386222        0.8806784985
 C       -10.7404844497        4.1841485616        0.2706602628
 C        -2.6135113304        6.3027884689       -0.2183317770
 C        -3.1565960695        6.1869380689        2.1461667284
 C        -7.9782812583        9.6500986181       -3.9219459807
 C        -7.6974649426       11.2869836015       -2.0011360052
 H       -10.0876228784       11.6130634702       -1.4936839260
 H       -11.1862298083       10.5621731288       -1.0420638004
 H       -11.2412575123       10.8933129083       -2.8841263189
 H        -6.0314686884        9.9982197731       -0.3296176846
 H        -5.1317289221        9.0162780554       -1.4768841592
 H        -6.1879486490        7.0177906582        0.2308855326
 H        -6.3485767896        8.4828739593        1.2219338300
 H        -6.1165914487        5.8024715947        2.0665556635
 H        -5.2155719592        4.3313027487        2.1713330315
 H        -6.9920889253        3.4741633409        2.2865495027
 H        -6.5218894215        3.1960085241        0.5813586377
 H        -9.0645109398        1.2994310721       -1.6869322045
 H        -9.0134109524        2.2167429833       -3.2779319701
 H       -11.2776325544        3.0679798560       -3.0457184211
 H       -11.4896773199        1.7203581675       -1.7734980088
 H       -10.2049445562       -0.7406871679       -2.7311299012
 H       -10.7529512623       -2.4693220622       -3.2791829607
 H        -9.6160124923       -2.8659275734       -1.1236449021
 H       -11.5717946681       -2.9564168929       -0.9772576457
 H       -13.4116117310       -0.7257233991        2.4372375458
 H       -12.4238979509        0.4264836436        1.4342148182
 H       -11.9604226903        1.6626157942        3.5085136510
 H       -12.6487442700        0.3698310797        4.4606247904
 H       -16.1525365360       -0.0115673038        7.1517559796
 H       -16.1293959501        1.8376795218        6.8427571378
 H       -15.0541389150        1.1014525414        7.8321106249
 H       -16.5484690060        2.3275748415        4.1345286661
 H       -17.4086395819        0.9110063490        5.2006407627
 H       -17.2355317788        0.7819960012        3.3783281045
 H       -14.5242699204       -1.3744241249        4.5381038438
 H       -15.5174536658       -1.0957545762        2.9930303572
 H       -16.2940267395       -1.4832930593        4.6065484754
 H       -13.0331253392       -2.4385167117        1.0094284307
 H       -12.4559144447       -3.0967115069        2.5251608668
 H       -12.0811602536       -3.7855056804        0.7961935543
 H        -8.8009093831       -2.1927247574        1.5194175847
 H        -9.5693809023       -3.6145645429        1.3762528027
 H        -9.4959533454       -3.1002482691        2.9615911079
 H       -13.6583278359        1.2929149376       -2.9445392805
 H       -14.5242371495        0.0756647561       -3.8790065051
 H       -13.7416863921        1.4048150888       -4.7316178205
 H       -13.0616729480       -0.9416753243       -5.6694156342
 H       -11.7482234522       -1.7654259299       -5.0500459606
 H       -11.5814603345       -0.2635713308       -5.9808909151
 H        -9.9862240662        1.5701512731        0.5019967211
 H        -9.4426236880        2.5104036805        1.9579651460
 H        -8.2666201081        1.6745928494        0.7570506087
 H       -11.1491958834        3.5130138776        1.0605132507
 H       -11.3534826598        4.1396192762       -0.5707151643
 H       -10.7058845562        5.2412807138        0.6070344679
 H        -1.7554828738        6.8398302465        0.1346887757
 H        -2.9459483146        6.5507923882       -1.2929223076
 H        -2.2709370963        5.1565706217       -0.2316145869
 H        -4.0178748564        5.8571423470        2.8137742217
 H        -2.6602949803        6.9884623562        2.7156550615
 H        -2.3999552060        5.4721480163        2.0475929096
 H        -7.0355665995        9.9973295111       -4.3229788096
 H        -8.7821999921       10.1615099356       -4.4890284317
 H        -7.9554678124        8.5394284935       -4.0757984808
 H        -8.3261041889       11.9738917326       -2.4317563955
 H        -6.7409347122       11.5283462739       -2.4166300910
 H        -7.6667344100       11.5741512714       -1.0011078127
 Na       -9.2973516965        6.3699350521       -0.9927413125
