117

 C       -10.5005499023       10.6706179094       -2.1713918010
 C        -9.6120487631        9.4344360470       -1.9405569938
 O       -10.1226899026        8.4471279146       -1.4961184057
 C        -8.0865599285        9.6776208131       -2.5310775025
 C        -7.1232223574        8.7234570383       -1.8716438241
 O        -7.1007019022        7.5526039213       -2.2724442816
 C        -6.2436657728        9.1716446578       -0.7748555132
 C        -5.7772608451        8.0708966022        0.3986335892
 C        -4.2780835678        7.7827088950        0.7207168721
 O        -3.4864147795        8.7010274328        0.8207472720
 C        -3.7116723031        6.3089308557        0.7949114688
 C        -4.7392036997        5.1713456836        0.4749175038
 O        -5.0282605918        4.8133928548       -0.6257844475
 C        -5.5169735604        4.7107911218        1.6489511603
 C        -6.7914649271        3.7796064978        1.0518254134
 C        -8.1354688503        4.5426431625        0.8450553987
 O        -8.1855917653        5.7316560558        0.9807291485
 C        -9.4355202165        3.6752937085        0.3108261287
 C        -9.3302366370        3.3789097797       -1.2116138392
 O        -9.2922693805        4.2879251508       -2.0216158752
 C        -9.4316839337        1.9506054635       -1.8373437217
 C       -10.8676888295        1.7533553722       -2.4326224301
 C       -10.9993710968        0.8706325860       -3.8384339295
 O       -10.2776942254        1.0284189566       -4.7665544303
 C       -12.2535411703       -0.0803034816       -3.8903273572
 C       -12.1582454929       -1.0203857428       -2.5709381797
 O       -13.1353521258       -1.2814820333       -1.8863157071
 C       -10.6949735189       -1.6211181461       -2.3568301164
 C       -10.4732901597       -2.4286691902       -1.0427512969
 C       -10.4098423691       -1.4714167957        0.2685839333
 O       -10.1202976954       -0.3300519537        0.1525829023
 C       -10.8839025658       -1.9947181753        1.6420207954
 C       -11.2190101242       -0.7809774137        2.4259434640
 O       -10.4349786979       -0.1645121768        3.1150336438
 C       -12.5989484497       -0.1975487405        2.1027020836
 C       -12.8697851425        0.9309472460        3.1773834724
 C       -14.3879529339        1.3589382271        3.2483570605
 O       -14.9054334798        1.9289804158        2.2772176378
 C       -15.3838919770        0.8146689274        4.3490853143
 C       -14.8542181580        1.0501506223        5.9337259572
 O       -13.6898436452        1.0185229476        6.1832529262
 C       -15.7772511400        1.0858456614        7.1578679924
 C       -16.6962792930        1.7918014116        4.2725833387
 C       -15.5522359092       -0.6585301377        4.1209249672
 C       -11.9872887013       -3.0677097252        1.4472478730
 C        -9.5928453024       -2.7781414134        2.3278907131
 C       -13.5070621727        0.9245136074       -3.7472361759
 C       -12.3550152225       -0.9905705459       -5.1069537169
 C        -9.3569267093        2.4620482311        1.1984519946
 C       -10.7611857879        4.4682422763        0.4445920029
 C        -2.5164350002        6.4615068941       -0.2570747583
 C        -2.9670153374        6.2146573459        2.0789987871
 C        -8.2085046848        9.5289024668       -4.0328842449
 C        -7.6643923404       11.1917288807       -2.2769362075
 H       -10.6880766300       11.2764427071       -1.2602132310
 H       -11.4850155877       10.2138138908       -2.2367069810
 H       -10.1809278911       11.0977654971       -3.0981652024
 H        -6.8306299203        9.9828760956       -0.1999579492
 H        -5.3361595212        9.6349106541       -1.1501042464
 H        -6.3227636914        7.1458192489        0.4358236607
 H        -6.0999921164        8.6275589049        1.3305991005
 H        -5.9447907898        5.6530144521        2.0629892445
 H        -5.0455862575        4.2644652669        2.5026803395
 H        -7.0510800033        2.9156159745        1.7037952799
 H        -6.5915306829        3.4097358897        0.0298746362
 H        -9.2787107805        1.0903253684       -1.0832503506
 H        -8.9577011133        2.0468319078       -2.8183812870
 H       -11.2923625686        2.7069341163       -2.7372388877
 H       -11.5610800841        1.3395907867       -1.6745116298
 H        -9.9148548052       -0.9123094288       -2.5130493760
 H       -10.6717052867       -2.3653800165       -3.1680568110
 H        -9.4064740983       -2.6662906719       -1.3015016606
 H       -11.2493239593       -3.1202336344       -0.9535769937
 H       -13.4005661336       -0.9947473685        2.1873256082
 H       -12.6157765859        0.1220689199        1.0013043937
 H       -12.3758674545        1.8239879066        2.9636706188
 H       -12.5621738000        0.6898811008        4.2239540287
 H       -16.7156844994        0.4673234778        7.0815781309
 H       -15.9367724325        2.1359129841        7.5162220363
 H       -15.2669542168        0.6029299509        8.0004052716
 H       -16.5921088712        2.7666653396        4.6065135922
 H       -17.5439875547        1.3253709452        4.7236970813
 H       -16.8435854737        1.9678436288        3.2415219298
 H       -14.5498816624       -1.1079261375        4.1622208502
 H       -16.0617456168       -0.8713167598        3.2626975939
 H       -16.1159938346       -1.0953444023        4.9142516769
 H       -12.6682296947       -2.8778926907        0.6521005748
 H       -12.6351732384       -3.2991883856        2.2824747800
 H       -11.3926787857       -3.9482227954        1.0283496049
 H        -8.6711255352       -2.4387418797        1.9855319789
 H        -9.6411157575       -3.9274475003        2.3634423397
 H        -9.6996511190       -2.6985052900        3.3729231687
 H       -13.3745895366        1.5803278217       -2.8043201973
 H       -14.4146100188        0.3350660562       -3.7407366317
 H       -13.6231013679        1.5275880702       -4.6320279688
 H       -13.3031395957       -1.7310654256       -5.0506948150
 H       -11.4485872571       -1.5174938982       -5.3358768575
 H       -12.4959717595       -0.4166584385       -6.0259548011
 H       -10.4628993402        2.1181843792        1.1583123262
 H        -9.1390796524        2.8178360027        2.2111482579
 H        -8.8021926219        1.6321730013        0.8282297755
 H       -10.8513323997        4.9057443035        1.4115569195
 H       -11.4647705707        3.6112945598        0.4800904303
 H       -10.9916428364        5.0486887992       -0.4160488292
 H        -1.8730769168        7.3948742786       -0.2794984723
 H        -2.9717751905        6.1990989318       -1.1975598687
 H        -1.8591019950        5.6969351436       -0.0361348742
 H        -3.6047477623        6.1330960906        2.9513450083
 H        -2.2338834245        6.9971242402        2.2032733458
 H        -2.2620478720        5.3491068829        2.0053353056
 H        -7.1710753514        9.7971746012       -4.3268124816
 H        -8.9324974763       10.1936443146       -4.5194988523
 H        -8.3846433808        8.4946524684       -4.3765966004
 H        -7.8875740691       11.9250964168       -3.1128939028
 H        -6.5005343911       11.1196111919       -2.2620843427
 H        -7.8384396962       11.8022011747       -1.3591439093
 Na       -8.9589841529        6.5742678965       -1.0015029162
