117

 C        -9.2758106234        9.1266273028       -2.2424473748
 C        -8.5295594703        9.8087432430       -1.0441827667
 O        -8.9045015589        9.5262318147        0.0660566901
 C        -7.1377023278       10.5969228533       -1.3193541609
 C        -6.2013813678        9.5349846313       -1.8762304024
 O        -6.0729035019        9.2560794140       -3.0455945878
 C        -5.5467226709        8.5475533331       -0.8012753815
 C        -5.1829698502        7.0637742912       -1.3810784927
 C        -6.3179215297        6.0428672180       -1.4817341982
 O        -7.4790423553        6.2974589473       -1.4212563845
 C        -5.8986194407        4.5316033269       -1.6402318588
 C        -5.8293552464        3.9336641020       -0.1230511233
 O        -4.9427994223        4.3811051465        0.6170982457
 C        -6.9180028939        2.9106413684        0.4975813313
 C        -6.8151206776        2.4498618592        2.0087437379
 C        -7.3316791018        1.0323464118        2.2530503206
 O        -8.0505367050        0.5269007297        1.4164823743
 C        -7.1970945662        0.3638683997        3.7437072670
 C        -8.3841714310        1.1809969999        4.4594040492
 O        -8.0211932809        2.1693228833        5.0316329708
 C        -9.8540138772        0.6928330322        4.5414110456
 C       -10.9298949909        1.7417640128        4.6313565123
 C       -10.9192179644        2.6300978516        3.4383474997
 O        -9.9085671163        2.8103121403        2.7919029158
 C       -12.2693643525        3.5451585931        3.0062341520
 C       -12.9271198358        2.7356962751        1.8647620333
 O       -12.5158522843        1.6334733313        1.4780958639
 C       -14.2735408273        3.3341277232        1.3261186421
 C       -14.8041826455        2.7249931023        0.0321728488
 C       -14.7654600658        3.9202829324       -1.0047665855
 O       -14.5693815117        5.0982348828       -0.8366183009
 C       -15.0615134431        3.4899418761       -2.5464797156
 C       -13.7885804092        2.5630126812       -2.7859952797
 O       -13.8534395019        1.4340729406       -2.4543339271
 C       -12.5985819145        3.2382697547       -3.4035690041
 C       -11.4113870302        2.1541379129       -3.4665531760
 C       -10.9634206019        1.5144830842       -2.2694104052
 O       -10.8353432214        2.1622039551       -1.2010747240
 C       -10.5258283405       -0.1031999979       -2.2446985597
 C       -11.1399008030       -0.8345641664       -1.0716516445
 O       -10.6518912211       -0.7313298096        0.0462989033
 C       -12.3275394033       -1.7503143007       -1.2958946894
 C       -10.9360597160       -0.7277559932       -3.6692445508
 C        -9.0365802022        0.0058533850       -2.1428503417
 C       -16.3716939987        2.6661559547       -2.6934323049
 C       -15.2907135295        4.7345840673       -3.4647395724
 C       -13.2896820274        3.8386660206        4.0826105697
 C       -11.8161139903        4.8590269957        2.3577171423
 C        -7.4392174002       -1.1648697027        3.5575596943
 C        -5.8307591190        0.6888995359        4.3987544685
 C        -6.8416198884        3.8282295630       -2.6611431963
 C        -4.4878500194        4.3835265235       -2.2290614238
 C        -7.6837900146       11.6257438622       -2.3768993653
 C        -6.7281290420       11.4128351591       -0.0284901058
 H       -10.3155968527        9.3832512825       -1.9468989057
 H        -8.9201638473        8.0480484096       -2.2080690770
 H        -9.0951349787        9.5635486944       -3.2566966214
 H        -6.1969504779        8.3896052429        0.1760022886
 H        -4.5569254589        8.9808847264       -0.3681558589
 H        -4.2966772772        6.5563794000       -0.9660670945
 H        -4.7976850029        7.2760762862       -2.3955941334
 H        -6.7264250940        2.0382604626       -0.1180145578
 H        -7.8840410479        3.3197235735        0.2441512740
 H        -7.3318907040        3.1787414205        2.5386703493
 H        -5.8549442187        2.5133622055        2.5203571096
 H        -9.8637414836        0.0863165915        5.5048601966
 H        -9.9283749459       -0.0381576539        3.7116057425
 H       -10.9158312292        2.3811863932        5.5715232296
 H       -11.9592475399        1.3476200920        4.7347519775
 H       -14.2786038451        4.4154643102        1.4226375953
 H       -14.9160626934        2.9611612537        2.1000572803
 H       -15.8862510581        2.3640909343        0.1253123703
 H       -14.1530344044        1.8866420885       -0.3989743627
 H       -12.2384616357        4.0401124694       -2.7465864252
 H       -12.9144071556        3.6711893874       -4.3298855573
 H       -10.5290713159        2.7137902516       -3.9794279444
 H       -11.7232256856        1.3497672995       -4.2481775312
 H       -12.8848902025       -2.0625888960       -0.3756672038
 H       -11.8849862194       -2.6869974545       -1.6215553530
 H       -12.9736880423       -1.3040288534       -2.0658147676
 H       -10.3783200194       -0.3090295458       -4.5941236671
 H       -11.9829084411       -0.5631469139       -3.9468412753
 H       -10.7628195759       -1.7959259327       -3.7515528003
 H        -8.7561536217        0.1168563949       -1.0852554343
 H        -8.4782930684        0.7882909001       -2.6780317854
 H        -8.5937023043       -0.9630476264       -2.4769168191
 H       -16.3535016078        1.8035619079       -2.1517537921
 H       -16.4611771096        2.3362767709       -3.7047548911
 H       -17.2647291350        3.2566610240       -2.4411198459
 H       -15.5753824620        5.6237264729       -2.9537148782
 H       -15.9186413950        4.4988824329       -4.2215340959
 H       -14.3122568933        4.9365352621       -3.9524270223
 H       -12.8766056185        4.5272572288        4.7977002475
 H       -13.5852636889        2.9037363300        4.5479396910
 H       -14.1756013276        4.2894736045        3.7736637292
 H       -10.8836392417        5.2124356810        2.8274157750
 H       -12.5775117278        5.5998745488        2.4166617953
 H       -11.5359298585        4.7286860384        1.2829033054
 H        -7.8758102899       -1.6361189381        4.4675807831
 H        -6.4945580303       -1.6850030122        3.4757923989
 H        -8.0077101386       -1.5140289153        2.6443021906
 H        -5.0762310138       -0.0810534084        4.2289411347
 H        -5.9961502038        0.8836266354        5.4329078127
 H        -5.4165732939        1.6082436109        3.8741661227
 H        -7.8556417206        3.8800051204       -2.4159731490
 H        -6.4979630327        2.7857367789       -2.8239831890
 H        -6.7363690194        4.2138530997       -3.6666704450
 H        -4.3823629031        5.2060376523       -2.9695099428
 H        -4.3735878063        3.3947694532       -2.7273406996
 H        -3.6699956149        4.4647744033       -1.5173460117
 H        -7.0827691269       12.5110059155       -2.2914337610
 H        -8.7301680735       11.7218886932       -2.0836565213
 H        -7.4183172145       11.1892754039       -3.3298947653
 H        -7.1502101963       10.9633211182        0.8737514874
 H        -7.1266519272       12.4357586901       -0.0815100249
 H        -5.6467531524       11.3968202446        0.0463813418
 Na      -10.0740116097        1.2671886738        0.9662017527
