117

 C       -10.5868037754       10.4753122507       -2.2517238368
 C        -9.2675861926        9.4423681560       -2.0900117595
 O        -9.3791501433        8.4471107316       -1.3487311380
 C        -7.9469554946        9.5572325949       -2.9968039985
 C        -6.7355813984        8.5915427551       -2.2801261157
 O        -6.5894688242        7.5070581845       -2.7579529787
 C        -6.4538135211        8.9331289483       -0.7969008894
 C        -5.9746519885        7.6737876621       -0.0118278384
 C        -4.4093660714        7.4868355939        0.2111030982
 O        -3.6747932639        8.4326024925       -0.0254972512
 C        -3.7969517891        6.1200850663        0.5464670320
 C        -4.8318850739        4.9176473860        0.3598498838
 O        -5.0427608816        4.4454834102       -0.7114900254
 C        -5.3616973939        4.1570446855        1.5293106666
 C        -6.8510861556        3.6466469431        1.4673744868
 C        -7.8546388180        4.3047884498        0.6419650826
 O        -7.5286988632        5.2704298842       -0.0394796538
 C        -9.2991396578        3.8968641899        0.6740057540
 C        -9.7948967239        3.8872211294       -0.8007597690
 O       -10.2083857829        4.7716813577       -1.4777850132
 C        -9.8130222582        2.6120787181       -1.5217290344
 C       -11.1478264281        1.9321534782       -1.9847682885
 C       -10.7476745107        0.7798707093       -2.9264193390
 O        -9.6361027287        0.7640107239       -3.4055974927
 C       -11.8958937527       -0.2636995012       -3.2752755173
 C       -11.8021298098       -1.4577706378       -2.2783846870
 O       -12.6642938233       -1.4990695509       -1.4147793287
 C       -10.6931551068       -2.4260340018       -2.2790760503
 C       -10.3377326586       -2.7844484227       -0.8106350930
 C       -10.5129305559       -1.5219180746        0.0984113642
 O       -10.2048026621       -0.3676672310       -0.3031850688
 C       -10.9736834980       -1.8585749165        1.6455176402
 C       -11.5330446655       -0.6098549520        2.4131398373
 O       -10.7711465683        0.2630235785        2.7567679223
 C       -13.0115877319       -0.5339124489        2.7108445990
 C       -13.2763563838        0.8186502715        3.2491264979
 C       -14.6813756023        1.5150263923        3.1256778739
 O       -15.0939556850        2.0906808980        2.1349577815
 C       -15.7327294688        1.4287950938        4.3172159538
 C       -15.0533242116        1.6745099917        5.7441370955
 O       -13.9316147051        2.0661659016        5.8214415557
 C       -16.1396611838        1.3662392745        6.8762551176
 C       -16.8226470590        2.6434431767        4.1698380529
 C       -16.6641268754        0.2005674993        4.1466499471
 C       -11.8700498146       -3.1264481571        1.7234120721
 C        -9.6009677211       -2.1829209847        2.4776754025
 C       -13.3035471115        0.3779176060       -3.2582328331
 C       -11.6081801704       -0.7326992538       -4.8092122432
 C        -9.4086143063        2.5424236861        1.5528564034
 C       -10.0199276535        5.1207587431        1.3934428411
 C        -2.6573375320        5.8106035203       -0.4181301972
 C        -3.2173332192        6.1798533077        1.9990080716
 C        -8.2600195432        9.1085890961       -4.3884060513
 C        -7.5664910279       11.0715443391       -2.7675991769
 H       -11.5137211619        9.8825880533       -2.5817897330
 H       -10.4590041071       11.3001101467       -3.0133513337
 H       -10.6872146604       11.0303562522       -1.3588264588
 H        -7.3221944154        9.4432798228       -0.4555506544
 H        -5.7550060480        9.7651460208       -0.7956590793
 H        -6.3876806574        6.8015086335       -0.4426080261
 H        -6.3580087979        7.6917029104        0.9761093723
 H        -5.4072736474        4.8599574694        2.2827361354
 H        -4.6539070392        3.5073092753        1.9863663772
 H        -7.1425072272        3.6223755790        2.5229019721
 H        -6.8988806547        2.6069633319        1.0414990595
 H        -9.4060385638        1.8351650718       -0.8302259721
 H        -9.3176137846        2.7157954843       -2.5533634508
 H       -11.7836044412        2.7328763314       -2.4509360219
 H       -11.8809639992        1.5927422111       -1.2330591046
 H        -9.7392840503       -1.9256962899       -2.8267946995
 H       -10.8380624122       -3.3377270863       -2.7956847200
 H        -9.3727087678       -3.1885342209       -0.7029965589
 H       -11.1125142765       -3.5078115230       -0.5274292667
 H       -13.3993134280       -1.4531466151        3.1524966930
 H       -13.4715260933       -0.8000425030        1.7356116923
 H       -12.4074488367        1.5619008255        3.1144989538
 H       -13.1424220668        0.4458879428        4.3106881558
 H       -16.9875331369        1.0290914018        6.4059749960
 H       -16.5996845888        2.2987296128        7.2352482104
 H       -15.7959243397        0.6800052024        7.6610071617
 H       -16.3444377063        3.6103245814        4.0437004695
 H       -17.4076599550        2.7445129945        5.0734836406
 H       -17.6035850647        2.5137320749        3.3307405672
 H       -15.9842240897       -0.5683280853        4.2556198646
 H       -17.0164677141        0.0957946520        3.1271535027
 H       -17.4871675388        0.0230138987        4.8484899583
 H       -12.6752049063       -2.7859385994        1.0183100980
 H       -12.3140837953       -3.3285800398        2.6198275021
 H       -11.4134649150       -4.0337790190        1.5144880555
 H        -8.8460711090       -1.3316879564        2.5532012331
 H        -9.2386559515       -3.0807244106        2.0276796757
 H        -9.8302322583       -2.4289024760        3.5839006043
 H       -13.6126375628        0.4764527760       -2.1992349820
 H       -14.0588512167       -0.2737658048       -3.7541684057
 H       -13.1373763092        1.3553057269       -3.6722836861
 H       -12.4952032106       -1.2951465637       -5.2308220840
 H       -10.7149378973       -1.4137537233       -4.8773386744
 H       -11.3151403842        0.0643938927       -5.3760294529
 H       -10.5077531044        2.1985164672        1.4083848656
 H        -9.2993331167        2.6331402578        2.6072860875
 H        -8.7446583004        1.7741843934        1.2580996528
 H       -10.3620294602        5.8258791538        0.6751663589
 H        -9.2919766059        5.6014631062        2.0539897258
 H       -10.9445301323        4.6896815773        1.8499755723
 H        -2.1996089337        6.8001423033       -0.5989603666
 H        -3.0339531761        5.4709746992       -1.3043523602
 H        -2.0576875525        5.1774474286        0.0654596374
 H        -3.9474174859        6.4654181092        2.6680529265
 H        -2.4098836906        6.9717929076        2.0318183068
 H        -2.9255457974        5.1644558892        2.3695850471
 H        -7.3021962423        9.2564447128       -4.9091900134
 H        -9.0524455197        9.6894759487       -4.9070349374
 H        -8.6008455511        8.0836476787       -4.4564936548
 H        -8.1874287711       11.7528052108       -3.4490942688
 H        -6.5408442172       11.2431212503       -3.0775368712
 H        -7.5259575135       11.4151917650       -1.7104698803
 Na       -8.5227865619        6.3145221682       -1.8447982478
