117

 C       -10.2934085952       10.4137643561       -2.2797208221
 C        -9.3471739137        9.3980032486       -2.0838353139
 O        -9.4359479549        8.3519422472       -1.4255551747
 C        -7.9147822684        9.5506501966       -2.9245634415
 C        -6.9448224675        8.5791677266       -2.2980410238
 O        -6.5199639982        7.6286850694       -2.9165677408
 C        -6.2032192736        8.9500998245       -0.9423637735
 C        -5.9356413804        7.7762554429       -0.1489079650
 C        -4.3993928903        7.5048218962        0.0712620900
 O        -3.6789244959        8.4323003126       -0.2292879467
 C        -3.8231276184        6.0781452485        0.5525205720
 C        -4.8289509876        4.9292558715        0.3924216134
 O        -4.9053437578        4.4458059820       -0.6950923941
 C        -5.4495159569        4.1765291410        1.6792261587
 C        -6.8529138311        3.5627223414        1.4698444129
 C        -7.8188648044        4.4348440656        0.5598678427
 O        -7.4479249074        5.1977785572       -0.2697548045
 C        -9.3910472711        4.0337323251        0.7782878972
 C       -10.0654972220        3.8640945956       -0.6639830281
 O       -10.4162754883        4.8872918535       -1.1865189635
 C        -9.7548686086        2.4465207858       -1.4648806101
 C       -11.0064689900        1.8084787292       -1.9251690832
 C       -10.7781556873        0.5736117173       -2.8095707607
 O        -9.6676578659        0.4337042848       -3.2881480457
 C       -11.9010891415       -0.3397720722       -3.3274592879
 C       -11.9102044543       -1.4663071534       -2.2150185175
 O       -12.7689366205       -1.4905586001       -1.3295849528
 C       -10.6548308492       -2.3232646994       -2.2144767103
 C       -10.2628248219       -2.7659609891       -0.8018865911
 C       -10.4428852583       -1.6175829264        0.2058498525
 O       -10.3514387820       -0.5086143781       -0.2378372863
 C       -10.8614692755       -1.9197746076        1.6328194590
 C       -11.4400476548       -0.6284159039        2.2974179744
 O       -10.7002949225        0.2249085790        2.7296516442
 C       -13.0983391807       -0.4854815162        2.5984859329
 C       -13.5116705516        0.8575087646        3.3232993433
 C       -14.8989675482        1.5127161653        3.1010532339
 O       -14.9787558181        2.0702831818        1.9940118820
 C       -15.8376082806        1.5548149772        4.2345222479
 C       -15.2493886546        1.8166680056        5.6816481731
 O       -14.1769181349        2.2803175239        5.9884176424
 C       -16.1239616932        1.4203511792        6.8290198161
 C       -16.7887597763        2.8341019163        4.1556364418
 C       -16.6373344421        0.2595201990        4.2143238049
 C       -11.7815419909       -3.1145701265        1.6152204724
 C        -9.6215321687       -2.1725095527        2.5769396115
 C       -13.2589047976        0.4054495228       -3.3691488131
 C       -11.5202578879       -0.9233916070       -4.7296907003
 C        -9.5125664454        2.7099485720        1.4882711500
 C        -9.9350569823        5.2685684054        1.6921081160
 C        -2.6614698966        5.6399361949       -0.4513894267
 C        -3.1548394061        6.2563964538        1.9287491157
 C        -8.1918181944        9.1406290568       -4.3994392008
 C        -7.4401449809       11.0509012841       -2.8187895193
 H       -11.1610458166        9.8777860438       -2.7916955186
 H       -10.1099199257       11.3332289345       -2.8341387392
 H       -10.6047928506       10.7585829321       -1.2821809220
 H        -6.7365804239        9.7884454161       -0.4089771035
 H        -5.2920244219        9.4007049885       -1.1575418762
 H        -6.3049907195        6.9026428755       -0.6125355258
 H        -6.4582796311        7.8486834483        0.8181340889
 H        -5.4335982078        4.7678389261        2.6529688733
 H        -4.6805492613        3.4587828082        1.9753320875
 H        -7.1930866655        3.1507998821        2.4694559878
 H        -6.7008318476        2.7709899928        0.7683525746
 H        -9.2936617069        1.6760011556       -0.8099927567
 H        -9.2441878774        2.5871358987       -2.3924794808
 H       -11.6169120098        2.5917735524       -2.4386487730
 H       -11.7456718146        1.5168804424       -1.1056533783
 H        -9.6991242122       -1.9246097912       -2.6329776647
 H       -10.7766737912       -3.2751743099       -2.8115252910
 H        -9.1330013075       -3.0286065391       -0.8318783886
 H       -10.7568589041       -3.6961531544       -0.5228828442
 H       -13.4382471390       -1.4132783276        2.9210883751
 H       -13.6691720945       -0.5673777435        1.6489211906
 H       -12.8680531601        1.6432741129        2.9186866257
 H       -13.1014674417        0.6495626249        4.3829871968
 H       -17.1079247610        0.9156252616        6.5706830459
 H       -16.5108013568        2.2930587283        7.2623080308
 H       -15.4906703877        0.9292712466        7.4605217706
 H       -16.0768599593        3.7176347232        3.9821766556
 H       -17.4058436663        3.1499971296        5.0819911845
 H       -17.5979513406        2.7765678236        3.3463606154
 H       -15.9459166250       -0.5693174799        4.5874343737
 H       -16.8702158879       -0.0650343607        3.2284775754
 H       -17.5092577173        0.3112007630        4.8976642638
 H       -12.5062744403       -2.8679399757        0.9414238728
 H       -12.2431294779       -3.1734690855        2.5973617458
 H       -11.3692220066       -4.1803883915        1.4953950746
 H        -8.7867010021       -1.4949279177        2.4337688960
 H        -9.3573662502       -3.3158051676        2.3269500687
 H        -9.8577726134       -2.0402021855        3.6475124710
 H       -13.5501550914        0.5321504798       -2.2933042161
 H       -14.0231735580       -0.1757733083       -3.8006021942
 H       -13.0562070219        1.3377943409       -3.7765442417
 H       -12.4775752445       -1.3352459340       -5.1592399313
 H       -10.8972231119       -1.7488057716       -4.6122850820
 H       -11.0352920849       -0.1721051008       -5.3880674681
 H       -10.5245755443        2.3118679688        1.4376667572
 H        -9.3409388568        2.8221175392        2.5994051460
 H        -8.7846699721        1.9214418233        1.2120091279
 H       -10.2852360295        6.0900414063        1.0909688642
 H        -9.1285152935        5.5653989886        2.4490058014
 H       -10.8228962402        4.8037069153        2.1282553623
 H        -2.2190176383        6.5099069393       -0.8850721158
 H        -3.1952725150        5.0930053993       -1.2675480130
 H        -1.9763961942        5.0226935558        0.1510390801
 H        -3.7154640197        6.8885522726        2.6288292090
 H        -2.2086113345        6.7223043681        1.7985447290
 H        -3.1568140186        5.2559777298        2.4060359233
 H        -7.3638971564        9.5262961873       -4.9982980427
 H        -9.1133954469        9.5846586376       -4.7559105256
 H        -8.3013458490        8.0842706481       -4.5408969527
 H        -7.8946708077       11.6886942547       -3.4850748213
 H        -6.3354025775       11.0584141249       -3.0865453430
 H        -7.4764921118       11.4177792016       -1.8491088625
 Na       -8.5109442841        6.3243939748       -1.8426619101
