117

 C       -10.2183340408       10.6591238816       -2.0837172593
 C        -9.1674495058        9.4794417373       -2.4083880856
 O        -9.4891537908        8.3976594821       -1.9472646718
 C        -7.8018831840        9.6081881098       -3.0244026252
 C        -6.8596334239        8.4363242538       -2.3478616777
 O        -6.9340030788        7.3548751272       -2.8795840799
 C        -5.8343264768        8.9653391807       -1.3146794850
 C        -5.5083619117        7.7985105790       -0.4168319106
 C        -3.9267540522        7.4208906470       -0.4100626558
 O        -2.9863649920        8.1452217087       -0.6804682598
 C        -3.5744559201        6.0403519799        0.3647449511
 C        -4.7159507252        4.9510153329        0.3386111339
 O        -4.7979795846        4.2468363673       -0.6050871091
 C        -5.6945775770        4.7861054573        1.5412210422
 C        -6.7680496828        3.6444767598        1.4515891899
 C        -7.9218539095        4.0405448804        0.5774620012
 O        -7.6486635063        4.7522022020       -0.3577967526
 C        -9.4216066216        3.9229817461        1.0292187225
 C       -10.0638278285        3.8224140162       -0.4616626129
 O       -10.6459455899        4.7371506834       -0.9157200099
 C        -9.8105785276        2.5506970853       -1.4195242695
 C       -11.1321658583        1.8171625406       -1.8869580702
 C       -10.6430212434        0.5871305261       -2.7247347010
 O        -9.4552281749        0.3348880146       -2.7553603494
 C       -11.7828610406       -0.4694727917       -3.2171948044
 C       -11.9074822881       -1.6508800357       -2.1052333645
 O       -12.9126956268       -1.6188274611       -1.3916574667
 C       -10.7411069454       -2.6384967250       -2.0065237387
 C       -10.2840786906       -2.7484716010       -0.5017937042
 C       -10.5630424001       -1.5806750371        0.4060939766
 O       -10.2718915886       -0.4107721110        0.1577772885
 C       -11.0382775447       -1.9337909358        1.9242406174
 C       -11.5643263709       -0.5156456084        2.2880745281
 O       -10.7427520302        0.2096538272        2.7544504242
 C       -13.0256590278       -0.1123222340        2.2659264515
 C       -13.5050421499        0.6450143418        3.5054104372
 C       -14.7787697647        1.3882024255        3.1922625790
 O       -14.9186405089        1.8765750879        2.0670826615
 C       -16.0081005934        1.7643823891        4.1685426714
 C       -15.3341965056        2.1650838181        5.6150137053
 O       -14.5222050891        3.0305068816        5.7822972271
 C       -16.1653062697        1.6023413393        6.7628057099
 C       -16.8152964619        2.9595940769        3.5819009963
 C       -16.8869607214        0.4962544761        4.1560172568
 C       -12.1647783283       -3.1196743413        2.1086048668
 C        -9.7994478314       -2.3296064126        2.6084393360
 C       -13.1399126297        0.3125083598       -3.2755972336
 C       -11.5016448078       -1.0603322912       -4.5576899097
 C        -9.7280675843        2.7854130159        2.0264826539
 C        -9.7600267283        5.4315395204        1.4607669759
 C        -2.3082301233        5.4551322483       -0.3461349441
 C        -3.2183904460        6.4167480407        1.8721787935
 C        -8.2114949234        9.3191052460       -4.5366855551
 C        -7.3483466409       11.0504191435       -2.8885977341
 H       -11.0327170909       10.8037786598       -2.9037214798
 H        -9.6224668171       11.6091353106       -1.9573436756
 H       -10.8294546451       10.4393046013       -1.2366717928
 H        -6.0115557616        9.9440505345       -0.8337212469
 H        -4.9052667762        9.1632025331       -1.9421141037
 H        -6.0176123867        6.8948852941       -0.6741144762
 H        -5.7262838263        8.0366946070        0.6266133147
 H        -6.1315372764        5.7853924331        1.5364693916
 H        -5.1685572937        4.7281649306        2.4825496760
 H        -6.9927578445        3.2964179735        2.4881279579
 H        -6.1639341783        2.8681622825        0.9321378811
 H        -9.2281971573        1.5811109219       -1.1148651681
 H        -9.2077830972        2.8615391996       -2.3286094470
 H       -11.8340591738        2.3204954030       -2.5268214348
 H       -11.6238018434        1.5797504748       -0.9395649665
 H        -9.7661790029       -2.3833288084       -2.5604560304
 H       -10.9660910863       -3.5791337602       -2.4579864655
 H        -9.2997853386       -3.0863475603       -0.3099919077
 H       -10.8253789303       -3.5628513605       -0.0773618207
 H       -13.6731626521       -0.8789037523        1.8327689146
 H       -13.1436776846        0.5720526326        1.3778611259
 H       -12.7037998481        1.2364628236        3.9727398864
 H       -13.6814747620       -0.1864607388        4.2543297081
 H       -17.1439078177        1.1606023674        6.3683811529
 H       -16.5065983831        2.3866890238        7.4650391242
 H       -15.5213530650        0.9022594218        7.2406593596
 H       -16.4369182699        3.8455360523        3.9248570273
 H       -17.8002365758        2.9263025027        3.8834739372
 H       -16.9722761119        2.7926338264        2.5655909825
 H       -16.5925553616       -0.4524906550        4.5213392838
 H       -17.0635154179        0.3884377651        3.1293704457
 H       -17.8363716040        0.8018355801        4.6315914225
 H       -12.9925824230       -2.9860609749        1.4984856537
 H       -12.3849972614       -3.2543840497        3.1558096549
 H       -11.7182940437       -4.0917037028        1.7207567262
 H        -9.1152157036       -1.5375684277        2.7459988633
 H        -9.2877891270       -3.0173904838        1.8641666112
 H       -10.0542946962       -2.6488741173        3.5917146632
 H       -13.3586272879        0.9955809938       -2.3701174558
 H       -13.9566453772       -0.4353291529       -3.2290154635
 H       -13.0385157503        0.8243983104       -4.2005122509
 H       -12.2272033089       -1.9316157844       -4.8345534270
 H       -10.5287938656       -1.4244700458       -4.5474937713
 H       -11.7277583491       -0.2590024640       -5.2155026689
 H       -10.8199114816        2.7960165118        2.3125381259
 H        -9.1640518454        2.9146197153        2.9187884837
 H        -9.5228682061        1.7760622576        1.6891384583
 H        -9.2349595147        6.1250058210        0.9002692592
 H        -9.4327438259        5.4425577316        2.5143201930
 H       -10.8334912287        5.6533310593        1.3380138766
 H        -1.4721234159        5.9982380864        0.0138122168
 H        -2.4481409666        5.5604808968       -1.4001003323
 H        -2.2484641712        4.4616504027       -0.0546042656
 H        -4.1262565793        6.4860622009        2.3707647109
 H        -2.7590720700        7.4093827225        2.0249318321
 H        -2.6734463240        5.5411859625        2.3457294359
 H        -7.2606648026        9.4037168783       -5.1163676801
 H        -8.8483255958       10.1435343422       -4.9460432473
 H        -8.6086178047        8.3349039220       -4.7487678223
 H        -8.0445006638       11.8853684401       -3.1849328945
 H        -6.3643974566       11.2344794325       -3.4830388939
 H        -7.2599626036       11.1090855023       -1.7734272855
 Na       -8.7503752855        6.1366373230       -1.9388989642
