117

 C       -10.0238603228       10.6615991260       -2.0335558854
 C        -9.2727708696        9.3936727060       -2.2867382823
 O        -9.6340670209        8.2693004093       -2.0158948767
 C        -7.8707222502        9.6849299428       -3.1165580748
 C        -6.9108483813        8.5951215232       -2.6068418852
 O        -7.2291589031        7.4582797470       -2.6844727802
 C        -5.7333535035        8.8370298195       -1.4974187028
 C        -5.2575830760        7.7650705266       -0.4987757485
 C        -3.7975000771        7.4475428175       -0.3348305040
 O        -3.0298729337        8.1282464642       -0.9643947171
 C        -3.4519897602        6.0258414581        0.4405861411
 C        -4.6548195195        4.9844853905        0.2543727836
 O        -4.6592839912        4.1646204235       -0.6919257089
 C        -5.7905705887        4.9014689224        1.4285299684
 C        -6.7342746545        3.7275841550        1.5162529042
 C        -7.8282783251        4.1395250794        0.5287416838
 O        -7.6343091743        4.7019287093       -0.5363954338
 C        -9.4191480449        3.9745123983        0.9352609450
 C       -10.1045747253        3.7376288078       -0.4294901127
 O       -10.6281977651        4.6935257889       -1.0130542673
 C        -9.8511541722        2.5050063819       -1.2570286077
 C       -11.0733757369        1.8637402130       -1.9010008499
 C       -10.6735884101        0.5628463043       -2.5952860121
 O        -9.4839212195        0.3376433478       -2.7631788025
 C       -11.7596753198       -0.4018854165       -3.1375888453
 C       -11.9048623208       -1.6003214166       -2.0560456540
 O       -12.8918822214       -1.7562654984       -1.3558791930
 C       -10.7924109614       -2.5935749356       -1.9413707877
 C       -10.4666279745       -2.9188249094       -0.4635373284
 C       -10.6332706531       -1.5954269218        0.4786262293
 O       -10.2849817485       -0.4940911786        0.1638854484
 C       -11.1119668871       -1.8892937499        1.8831062778
 C       -11.5557052304       -0.5006478314        2.5821275115
 O       -10.6949243818        0.2584800866        2.9796567203
 C       -13.0267246979       -0.0276127707        2.3477729586
 C       -13.7047293810        0.5092254774        3.5916795969
 C       -14.7538412628        1.5072028945        3.0580459664
 O       -14.7486437074        1.8306957356        1.8990534565
 C       -15.9887725996        1.7771596410        4.1134828336
 C       -15.5670667736        2.2649205730        5.4837382211
 O       -14.6539311403        3.0874960533        5.5242381583
 C       -16.1691190093        1.6607710834        6.8508691799
 C       -16.7410674790        3.0460783933        3.5478500426
 C       -16.8877791908        0.5305538532        4.2271370505
 C       -12.2657486301       -2.9220850192        2.0928873207
 C        -9.8879406011       -2.3312081696        2.7453675478
 C       -13.1621020363        0.2315698112       -3.0888895342
 C       -11.2227175135       -0.9872994188       -4.5405853806
 C        -9.7141106775        2.9329444370        1.9921385140
 C        -9.8258294842        5.2978092950        1.4552372725
 C        -2.2735092900        5.2008510027       -0.1583688271
 C        -3.1239162255        6.4344105337        1.9009935317
 C        -8.0651684398        9.3488234914       -4.6278810733
 C        -7.1749686303       11.0834968401       -2.9450394764
 H       -10.3950018265       10.8855098077       -3.0445007070
 H        -9.2946581513       11.4510664889       -1.8148373193
 H       -11.0663279398       10.6792556279       -1.4863752767
 H        -6.1442647092        9.6596489840       -0.8174420826
 H        -4.9557729499        9.3170185454       -2.0225774560
 H        -5.6505712168        6.8188992726       -0.7563841880
 H        -5.6623677906        8.0836784066        0.4413535452
 H        -6.3119566635        5.8601990421        1.4853913050
 H        -5.1271761163        4.7833108874        2.2634417656
 H        -7.0960116713        3.7058831852        2.5981683880
 H        -6.1706950864        2.8425879821        1.3015938172
 H        -9.1866230290        1.6938063095       -0.8152523862
 H        -9.2087482139        2.8001131899       -2.0908467170
 H       -11.5804734628        2.5723271642       -2.6027819846
 H       -11.7711449418        1.6910098603       -1.0209730481
 H        -9.8866505644       -2.4087026662       -2.3653865060
 H       -11.1432807559       -3.5494560516       -2.5160019247
 H        -9.4425050573       -3.2640505621       -0.3169009724
 H       -10.9436276785       -3.7734924588       -0.0605542864
 H       -13.6036721636       -0.7515770340        1.7857405512
 H       -12.9792258221        0.7780733711        1.5278044306
 H       -12.9621962072        0.9587539967        4.3129759881
 H       -14.0983421816       -0.4258016862        4.1873571428
 H       -17.2496389725        1.3704511064        6.7384374362
 H       -16.1492534317        2.3563955800        7.6678162986
 H       -15.4941475259        0.8654845934        7.0505271632
 H       -16.3291137570        4.0023307701        3.8829987140
 H       -17.7837581644        3.0472401153        3.8458916719
 H       -16.9324307163        2.8049569826        2.5670004154
 H       -16.5140529232       -0.3955434509        4.6663243817
 H       -17.3282360571        0.2913436806        3.3144485390
 H       -17.6126921701        0.9317668594        4.8693644821
 H       -13.1635959463       -2.7941464104        1.6009204794
 H       -12.3426974501       -2.8267257960        3.1466205501
 H       -11.9768367491       -3.9316162849        1.7967123378
 H        -9.3653136681       -1.4099775148        3.0030456055
 H        -9.1130256690       -2.7979455449        2.0500876023
 H       -10.2267916379       -2.7438091869        3.7066053315
 H       -13.2471167164        0.5855364950       -2.0398403526
 H       -13.9691299168       -0.5057913853       -3.1983232285
 H       -13.1248086480        1.0562474298       -3.8181345857
 H       -11.6196395528       -1.9284500655       -4.5966703577
 H       -10.1589344310       -1.0714544868       -4.5018952367
 H       -11.7440710487       -0.3804159171       -5.3378062971
 H       -10.6424952552        2.9969329235        2.4231804090
 H        -8.9637538715        2.9669978401        2.8049951838
 H        -9.6833514677        1.9023327421        1.6066405013
 H        -9.2977423821        5.9812147065        0.8165255797
 H        -9.5777922086        5.4491979396        2.5163026580
 H       -10.8767193423        5.4949556370        1.2956916277
 H        -1.4237025479        5.6562715830        0.1156072616
 H        -2.4704691720        5.1738841676       -1.1945355900
 H        -2.2946053013        4.1795380370        0.2361059121
 H        -3.9847323606        6.8287690172        2.5702393296
 H        -2.4742546472        7.2570338141        1.8016329258
 H        -2.5948504606        5.6127439355        2.3714027412
 H        -7.1111290352        9.1766014089       -5.1716240909
 H        -8.5844982787       10.1619753773       -5.1635820030
 H        -8.6091011095        8.3766282070       -4.7232117058
 H        -7.6958047625       11.8888151574       -3.4078928768
 H        -6.1823816637       11.0150325291       -3.5184199187
 H        -7.1212678655       11.3472861337       -1.8833402454
 Na       -8.8926736194        5.9837075526       -1.9110869042
