117

 C        -9.9174794967       10.8932246804       -1.9576063700
 C        -9.2257695118        9.5768891625       -2.4520251758
 O        -9.6101436817        8.4442678932       -2.2904526384
 C        -7.9514809542        9.6172871683       -3.1529732890
 C        -6.9459366898        8.3870329054       -2.3618916387
 O        -7.2840658585        7.2099333283       -2.3318581055
 C        -5.5184624278        8.5649173542       -1.7950672023
 C        -5.1743589411        7.3843797116       -0.7958506906
 C        -3.6978387377        7.1639231750       -0.6267382009
 O        -2.8626603450        7.7276697259       -1.2805463569
 C        -3.3046317315        5.9510944170        0.3642596546
 C        -4.6112977645        4.9612494800        0.4074528209
 O        -4.7321569783        4.2168540020       -0.5006373713
 C        -5.5306723701        5.1414767595        1.6389447911
 C        -6.6642355902        4.0369713740        1.4215298463
 C        -7.7756988322        4.3822937175        0.4048942588
 O        -7.6383225733        4.6051616376       -0.7831145129
 C        -9.2964789785        4.2296447500        0.8154071888
 C       -10.0614031607        3.7704551686       -0.4354371143
 O       -10.6903463825        4.4703984305       -1.1967526492
 C        -9.9004328996        2.4260385630       -0.9184322418
 C       -11.1343690894        1.8375584439       -1.7906923510
 C       -10.6611045334        0.5193417182       -2.5091231057
 O        -9.4696645715        0.2943969899       -2.6618280270
 C       -11.8015405909       -0.4564128354       -3.0179295516
 C       -11.8356761957       -1.6602871579       -1.8792802666
 O       -12.8976295341       -1.8842028790       -1.3116097871
 C       -10.6363888145       -2.5348630632       -1.6927126262
 C       -10.6242948997       -3.0942057932       -0.2467340899
 C       -10.5296365727       -1.8129842824        0.5997258974
 O       -10.4440773056       -0.6631893074        0.0951665766
 C       -11.0617428697       -1.8954923645        2.0578109999
 C       -11.5048448843       -0.3927490463        2.8308332175
 O       -10.8048855250        0.2290915751        3.5746779563
 C       -12.8950593489        0.1448686494        2.3979495581
 C       -13.9283379357        0.4609116275        3.5251163487
 C       -14.9161270865        1.5081083849        3.1338629110
 O       -14.8475714711        2.1025223856        2.0553105995
 C       -16.1189128283        1.7955423743        4.0789299685
 C       -15.4799087226        2.4984868929        5.3721366980
 O       -14.6767850364        3.3753116907        5.2261995067
 C       -15.9897961600        1.8220459295        6.6312052910
 C       -16.9352489490        3.0152835096        3.2324873805
 C       -17.1419859785        0.6331839870        4.0535034530
 C       -12.3120342911       -2.7937433540        2.1896430736
 C        -9.9575548301       -2.5106385640        2.9900528841
 C       -13.1492682207        0.2269684148       -3.2450558749
 C       -11.3666426093       -1.0002952523       -4.5087479074
 C        -9.4953726343        3.0498672400        1.8010459261
 C        -9.8832750044        5.4657842127        1.5100642180
 C        -1.9802960765        5.3395179120       -0.1572141630
 C        -3.1638726534        6.6539603824        1.7149932863
 C        -7.9226005280        9.2150665751       -4.5986992347
 C        -7.1479221206       10.9999678451       -2.9392635172
 H        -9.7344762487       11.8485874616       -2.4703902097
 H        -9.5299742139       10.9977197248       -0.9475500581
 H       -10.9265327343       10.8329645981       -2.0838141613
 H        -5.6165294521        9.4671911482       -1.2916914564
 H        -4.9208869210        8.7313750616       -2.7445176307
 H        -5.6825528780        6.4262332598       -1.1253795382
 H        -5.4518114672        7.7218531381        0.2327460326
 H        -6.0362474488        6.1236212897        1.4834532498
 H        -4.9137579654        4.9837850087        2.6098647712
 H        -7.1087386591        3.9176715545        2.3604407535
 H        -6.2876452874        3.0691364349        1.0047142900
 H        -9.5357856322        1.6895468451       -0.1786191694
 H        -8.9902238458        2.2668121566       -1.5107850494
 H       -11.3746864755        2.6919680518       -2.4306404234
 H       -11.9269534430        1.6186740707       -1.1090538588
 H        -9.6610338758       -1.8517064489       -1.6067761102
 H       -10.3454405553       -3.2255081077       -2.4013822384
 H       -10.0019881609       -3.9263846592        0.1537578055
 H       -11.6228887721       -3.6546809125       -0.0560606166
 H       -13.3614655705       -0.5271593276        1.5806787295
 H       -12.7362781398        1.1296732595        1.9175587785
 H       -13.4290690796        0.7877304183        4.4205359455
 H       -14.4414314811       -0.3924845205        3.8235616760
 H       -16.9839212581        2.2887134513        6.8066642211
 H       -15.3148169643        1.9529709957        7.4767171173
 H       -16.0677962486        0.7695907360        6.3968312458
 H       -16.1900998270        3.8260148334        3.1424434668
 H       -17.7143635071        3.5044613937        3.9043129596
 H       -17.6359235674        2.6286138762        2.3986310476
 H       -16.6489794922       -0.1894613508        4.5845251440
 H       -17.2255995745        0.2531512430        2.9944763202
 H       -18.1465243465        0.8147900142        4.5725625122
 H       -12.7743479480       -2.6947265344        1.1880225536
 H       -13.0059998026       -2.3013726207        2.8985621044
 H       -12.1096741187       -3.8879496259        2.1673463653
 H        -9.1234034858       -1.8612215612        3.2835776919
 H        -9.4826456620       -3.3375302160        2.5188693066
 H       -10.5875575245       -2.7086258485        3.8357406897
 H       -13.6370856890       -0.0582986270       -2.3097010866
 H       -13.6528917647       -0.2358209241       -4.0774584077
 H       -13.0851597049        1.2600683035       -3.3761625633
 H       -11.9038288193       -2.0600961997       -4.7463061257
 H       -10.2863263575       -1.1272325155       -4.3763227720
 H       -11.6894087180       -0.2469169259       -5.1510209041
 H       -10.6609916861        2.7508528119        1.8384007431
 H        -9.1360616711        3.0578755476        2.8394937996
 H        -9.1386485024        2.0674594419        1.4180284625
 H       -10.0556839965        6.2178196986        0.7135673489
 H        -9.3807133130        5.7955916070        2.4309216593
 H       -10.8904767655        5.1100663202        1.8973125308
 H        -1.4775738210        6.3406153892       -0.3933651580
 H        -2.1660314763        4.5597771384       -0.9992378283
 H        -1.4025885776        4.8764507259        0.6757586710
 H        -3.7007202752        7.5087528760        1.6434766806
 H        -2.0951608148        7.0543801654        1.7912899903
 H        -3.2756821422        6.0591908487        2.6410961112
 H        -6.9553004675        9.2686763052       -5.0642376492
 H        -8.6250876575        9.8023401288       -5.1736418048
 H        -8.1607382245        8.1857490405       -4.6587010043
 H        -7.7126904324       11.8075097191       -3.3490790828
 H        -6.1667835940       10.8752827419       -3.3679194568
 H        -7.1434187986       11.2063000062       -1.9210161216
 Na       -9.2169386705        5.9609220389       -1.9680221613
