117

 C        -9.8949945841       10.7993928951       -1.9475644936
 C        -9.2432784000        9.5257048783       -2.4106975440
 O        -9.9598338484        8.5579029508       -2.3302042294
 C        -7.6299605099        9.4160812237       -3.0965338392
 C        -6.8200035764        8.2787581728       -2.4060469785
 O        -7.4596310981        7.2691435712       -2.3006939383
 C        -5.3628227157        8.4213676915       -1.9156433604
 C        -5.0907726462        7.3125938172       -0.9193398302
 C        -3.6670298992        7.0453614123       -0.8047352121
 O        -2.7374715920        7.5192663636       -1.4659525323
 C        -3.1513395147        6.0922630595        0.3442304564
 C        -4.4722280163        4.9471274188        0.4739701095
 O        -4.7760528442        4.1313010266       -0.3880213945
 C        -5.5393611368        5.1098975637        1.5891991644
 C        -6.7527670537        4.1563228873        1.4155437214
 C        -7.7923868130        4.4513959270        0.3339130339
 O        -7.5293127950        4.7740179896       -0.7876335478
 C        -9.4012342663        4.1993128468        0.8314185971
 C       -10.1305771664        3.7344232360       -0.4641975091
 O       -10.6711220725        4.5572981111       -1.1476558588
 C        -9.9323916232        2.1355300332       -0.9277461447
 C       -11.2223338379        1.6579623270       -1.7855610091
 C       -10.7117252898        0.4893997327       -2.5512129052
 O        -9.5123902127        0.2645084268       -2.5680146743
 C       -11.7771723584       -0.5451483891       -3.0915001771
 C       -11.8231879297       -1.6798466931       -1.9937473909
 O       -12.8332085033       -1.9163144066       -1.3394835145
 C       -10.5861222575       -2.4501380986       -1.6934373465
 C       -10.6422180808       -2.9364555350       -0.1384986181
 C       -10.7419226273       -1.7427824461        0.8409018186
 O       -10.4575940561       -0.6888788537        0.2948807445
 C       -11.1577065231       -1.8547313218        2.3030715339
 C       -11.5509898396       -0.4347478379        2.8233629816
 O       -10.8824183701       -0.0550596378        3.7562367305
 C       -12.8132826653        0.2802839031        2.2910321634
 C       -13.8398879009        0.4520573154        3.4246338265
 C       -14.9310788019        1.5764914093        2.9910140807
 O       -14.7594601815        2.2241801579        1.9978868066
 C       -16.1128744219        1.9080567758        3.9649239449
 C       -15.5757523788        2.5119533462        5.1983167600
 O       -14.7623799012        3.4129485166        5.0938420932
 C       -15.9317476382        1.9107168940        6.5798877996
 C       -17.1511356838        3.0093020480        3.1721039125
 C       -17.1955420448        0.7902321531        4.1742795590
 C       -12.3879541630       -2.7840846019        2.3666639454
 C        -9.9798970158       -2.5371841552        3.1715622290
 C       -13.1278781954        0.2130689116       -3.1971025970
 C       -11.4254966628       -1.1981527009       -4.4795310534
 C        -9.2885229195        3.1534980167        1.9994253344
 C        -9.8782476632        5.5923050456        1.3766600367
 C        -1.9106171784        5.3733867998       -0.1871147770
 C        -3.0651935999        6.9627748011        1.6791616971
 C        -7.8470768141        9.0349526747       -4.5857707452
 C        -6.9691368692       10.9372168227       -2.8838257394
 H        -9.3445697686       11.6942418417       -2.2036632938
 H        -9.7725932145       10.7555671847       -0.9037708295
 H       -10.8500703914       11.0700224615       -2.4604381185
 H        -5.3127593887        9.5064568128       -1.6602542373
 H        -4.7938689818        8.2250290521       -2.8522797799
 H        -5.4971707451        6.4540430388       -1.4966660051
 H        -5.4563732510        7.3831245849        0.1532566593
 H        -5.9043016698        6.1285942517        1.7401085246
 H        -4.9893862950        4.6367445011        2.4182624080
 H        -7.1919602108        4.1632257188        2.4500094057
 H        -6.4479001596        3.1691130238        1.0837462862
 H        -9.8176371523        1.3167910123       -0.0865727609
 H        -8.9716262718        1.7827979548       -1.3987976620
 H       -11.3668065538        2.4885136410       -2.3983626150
 H       -12.0338190132        1.4865199122       -1.1046687004
 H        -9.6100222178       -2.0628717693       -1.9036711077
 H       -10.5054138812       -3.4161136550       -2.2230388803
 H        -9.8252266262       -3.5170233341        0.2906864298
 H       -11.3407570715       -3.7514344290       -0.1469484626
 H       -13.3318761169       -0.1357421432        1.4343581733
 H       -12.5515243138        1.3651044068        2.1115251640
 H       -13.3847300045        0.6014465289        4.3368443855
 H       -14.4163988449       -0.4719847996        3.5629108882
 H       -16.7125619322        2.5831302433        7.1731139888
 H       -14.9499278382        1.8945715947        7.0557281795
 H       -16.2678499100        0.8873323730        6.4798086325
 H       -16.4910544440        3.7996539095        2.8927916771
 H       -17.8494615667        3.5108615823        3.8734214257
 H       -17.7853271309        2.5295930495        2.4548185428
 H       -16.7651483301       -0.1052423488        4.7510913153
 H       -17.3908610157        0.4195266830        3.1870567778
 H       -18.1571465543        1.1198410283        4.6824489673
 H       -12.8702202951       -2.5373271064        1.4820420705
 H       -13.0618072823       -2.4588509870        3.1943830509
 H       -12.1467674198       -3.8825780273        2.1142974983
 H        -9.0522904524       -2.1352494118        3.0854439018
 H        -9.8773632336       -3.6215503145        2.7634208680
 H       -10.4036077309       -2.5351965147        4.1171203072
 H       -13.6146004766       -0.0654227902       -2.2049335148
 H       -13.6516719358       -0.1773432203       -4.0464665228
 H       -13.0641367710        1.2627991203       -3.3292481648
 H       -12.2890514023       -1.7663179105       -4.8059379229
 H       -10.5723074108       -1.8090181602       -4.2968750466
 H       -11.2490735853       -0.3097755467       -5.1798816920
 H        -9.9166263199        2.3218726971        1.9318142711
 H        -9.4608018755        3.5150549989        3.0598925878
 H        -8.3425043087        2.5645810221        2.0421200108
 H       -10.1196710571        6.1837112066        0.5278767624
 H        -9.0158905329        6.0119061225        1.9966665882
 H       -10.6626571757        5.5197104179        2.1534731449
 H        -1.4514144592        6.0727074125       -0.7752726755
 H        -2.2211995883        4.3917677804       -0.6260914172
 H        -1.2953631348        5.1158927557        0.7318786845
 H        -3.9126303905        7.6295519961        1.6003723522
 H        -2.2109887916        7.5981991124        1.7417641983
 H        -3.0077108397        6.3252199331        2.5810403666
 H        -6.9965133664        9.1448814050       -5.2460197147
 H        -8.6790743677        9.5911930262       -4.9923035202
 H        -8.0320629247        7.9930571945       -4.6278144873
 H        -7.6519671905       11.6911557426       -3.2166213195
 H        -5.8414899798       11.0305225133       -3.1980168160
 H        -7.1215339840       11.0446586111       -1.8016389618
 Na       -9.3716317859        6.1506811155       -2.0631147006
