117

 C        -9.7023658412       10.9538641303       -1.9081657703
 C        -9.1880757824        9.5404675291       -2.5312469732
 O        -9.8817227508        8.5243390986       -2.5042243352
 C        -7.6552400871        9.3943245880       -3.0441599462
 C        -6.9924299924        8.1558006688       -2.3804643721
 O        -7.4288845093        7.0243787764       -2.1594067528
 C        -5.4577826799        8.2386338569       -2.2491342542
 C        -5.0278690303        7.2072455394       -1.2358710503
 C        -3.4231256990        6.8430447064       -1.0488502526
 O        -2.6661506204        7.2605965075       -1.9170319407
 C        -3.1069849221        6.0994913452        0.2201533972
 C        -4.2998851382        5.0235305100        0.3920177433
 O        -4.3182010018        4.0163926578       -0.2430371571
 C        -5.3292235126        5.3062030936        1.5259291227
 C        -6.5836451053        4.4103483083        1.5309363615
 C        -7.7969725285        4.5605701075        0.4581527937
 O        -7.6066079408        5.2433005863       -0.5189013270
 C        -9.3147508045        4.2102880118        0.8445883907
 C        -9.9901100672        3.5535504510       -0.4487871510
 O       -10.5343984412        4.4287262610       -1.2066663855
 C       -10.1023559823        2.0442641747       -0.6291156634
 C       -11.1056645585        1.5525907234       -1.6926572522
 C       -10.7299359392        0.2995507291       -2.5852434300
 O        -9.5460501024        0.1152444584       -2.7500162321
 C       -11.7994524712       -0.6608759644       -3.1222845439
 C       -11.9276257475       -1.6980065470       -1.8369450441
 O       -12.9785194943       -1.9892779786       -1.2898906013
 C       -10.6881251986       -2.4185024221       -1.4999508871
 C       -10.5611260145       -2.7455114822        0.0423846669
 C       -10.9127159465       -1.6949541026        1.0288751876
 O       -10.5360547094       -0.5357452328        0.8127101655
 C       -11.4013441457       -1.9164676099        2.4594815329
 C       -11.7585152612       -0.5219040863        3.1284860770
 O       -11.1370125967       -0.2251428830        4.1074027439
 C       -12.7653386733        0.4802421277        2.3955847749
 C       -14.0269811114        0.5013431797        3.1693239902
 C       -14.8292994810        1.6881694668        2.7529319224
 O       -14.7976401584        2.4396683078        1.7911718632
 C       -16.0808350978        1.9974027590        3.7880997092
 C       -15.5828649414        2.6785107952        5.0471590228
 O       -14.9018443318        3.6363448416        4.8133138111
 C       -15.7880154979        2.1335425743        6.4546781985
 C       -17.0380496658        2.9750023901        3.1395230925
 C       -16.9939952827        0.6753932510        4.1004731981
 C       -12.6326186411       -2.8655196532        2.6190654164
 C       -10.1942720524       -2.6180101443        3.1709611490
 C       -13.1697100786       -0.0685554392       -3.2112074189
 C       -11.2841024800       -1.3014950295       -4.3699972612
 C        -9.4806776572        3.3231358912        1.9844727432
 C        -9.8061621401        5.6278554677        1.1955904708
 C        -1.8110245329        5.1203255799        0.2367742087
 C        -2.9574507704        7.1368143432        1.4091775676
 C        -7.8737770258        9.0411610729       -4.5632835420
 C        -6.9015504458       10.6940398685       -2.9608615843
 H        -8.9181237315       11.6940139361       -1.5012002139
 H       -10.4175644665       10.8340238882       -1.0359190262
 H       -10.0516574700       11.5313230255       -2.7235079026
 H        -5.1369319655        9.2108721986       -1.9647100472
 H        -5.1650584360        8.0377664704       -3.2901371127
 H        -5.6069672428        6.3077804749       -1.4360255994
 H        -5.3141009076        7.6725509305       -0.3419048274
 H        -5.7382082656        6.2642983424        1.2664827316
 H        -4.9467211374        5.1514432260        2.5102473541
 H        -7.0679864829        4.7224952033        2.4609626029
 H        -6.3433495231        3.3194244921        1.6321454688
 H       -10.3744751326        1.5240518910        0.2345250700
 H        -9.0968002419        1.6915347186       -0.6459648495
 H       -11.2232613139        2.4322921026       -2.4002737949
 H       -11.9895232719        1.4281005447       -1.0411649155
 H        -9.6364069926       -1.9870854410       -1.7107488225
 H       -10.6394417390       -3.3723267172       -1.9776383094
 H        -9.6062395452       -3.1603860446        0.3231195423
 H       -11.1384165702       -3.6508014093        0.2340627312
 H       -13.2137674746        0.0398148459        1.4654425515
 H       -12.4900870277        1.5258328150        2.4149770482
 H       -13.8261632746        0.7646389955        4.2992403621
 H       -14.6890982375       -0.3829954337        3.2836606529
 H       -16.2670426270        2.8925696609        7.0006653772
 H       -14.8624345007        1.7206634997        6.8689391293
 H       -16.5637725794        1.3615492512        6.3805598100
 H       -16.3914758200        3.7886821401        2.8871988544
 H       -17.8118338330        3.3332888654        3.7535343363
 H       -17.3799512249        2.5228672456        2.1887490992
 H       -16.4953090908       -0.1796711480        4.4032148683
 H       -17.6749507942        0.4303110880        3.2673637487
 H       -17.7030082852        0.9727870258        4.8189225918
 H       -13.6473369793       -2.4082426854        2.5610975858
 H       -12.4874576194       -3.2393493179        3.5857959651
 H       -12.5177460735       -3.6442901143        1.9376241241
 H        -9.3002525939       -2.1812058846        2.5743548205
 H       -10.2101159480       -3.6487654225        2.9558556201
 H       -10.2362982511       -2.4657826612        4.3053485762
 H       -13.4733069339        0.4299986365       -2.3162795937
 H       -13.7945866577       -0.9040258422       -3.5938087698
 H       -13.1635465229        0.5963489558       -4.1147935578
 H       -12.2548631815       -1.5628528433       -4.9278637179
 H       -10.6289494956       -2.1108117270       -4.0486758074
 H       -10.7568187984       -0.6174091623       -4.8782076004
 H       -10.4924015795        2.8784477521        2.2505845611
 H        -9.2725065059        3.7592486242        2.8922771400
 H        -8.9066258437        2.4542970534        1.9285596041
 H        -9.8276034703        6.2622595302        0.2971673357
 H        -9.0931048087        5.9631129790        1.8655031968
 H       -10.6612411445        5.6694559533        1.8228111356
 H        -0.8807407627        5.5428569069       -0.1503773704
 H        -2.1769087097        4.2820477336       -0.3273471912
 H        -1.7801139015        4.7837184280        1.1881264022
 H        -3.8936376156        7.4572679846        1.8282094820
 H        -2.3305497126        8.0474133111        1.1745980904
 H        -2.3886003004        6.5661282071        2.1174905357
 H        -6.9736146354        8.7469348917       -5.1364289866
 H        -8.3626361437        9.9126447661       -5.0518912643
 H        -8.4947056311        8.1067059804       -4.6893640454
 H        -7.6257007927       11.4597721645       -3.3325718754
 H        -5.9999419648       10.5425464979       -3.4771074682
 H        -6.7317629395       10.9621701273       -1.9186194691
 Na       -9.6463624957        6.3781155975       -2.1388943101
