117

 C        -9.5813808743       10.8627517687       -1.9577107316
 C        -9.0754127900        9.5692856829       -2.4603430693
 O        -9.9169212830        8.7379608404       -2.5193090304
 C        -7.6574610665        9.4025259824       -3.1768992956
 C        -6.9251531222        8.0682837731       -2.6034821591
 O        -7.6343478376        7.1502114284       -2.2418064962
 C        -5.3087259943        8.0957592008       -2.2613953930
 C        -4.8431783435        7.1417746103       -1.2224599280
 C        -3.3666949143        6.8207755947       -1.2107277063
 O        -2.5518276012        7.0436286895       -2.0583468728
 C        -3.0617272958        5.9475966857        0.2713381507
 C        -4.2419106580        4.9792986049        0.4384926520
 O        -4.2683172464        3.9231443039       -0.1353920848
 C        -5.4593612646        5.4681476609        1.3762035303
 C        -6.6162379233        4.3989277106        1.5931657594
 C        -7.7209023206        4.7420559597        0.6291295354
 O        -7.5445712602        5.3586349787       -0.3753772297
 C        -9.2541512245        4.2832185319        0.9349755271
 C        -9.9268994421        3.5776726491       -0.5218234919
 O       -10.4264696038        4.1773346997       -1.4505121994
 C       -10.0621446539        2.0528740885       -0.5826160685
 C       -11.1573483431        1.6953773201       -1.6917892981
 C       -10.6598177080        0.3469126781       -2.4325250225
 O        -9.5223339344        0.2049276220       -2.8398007304
 C       -11.8488996370       -0.7380585760       -2.9537347012
 C       -11.9835865063       -1.8095042378       -1.7634039228
 O       -13.0811818830       -1.9933312423       -1.2311595659
 C       -10.6647846827       -2.4495813553       -1.3338093029
 C       -10.6418886752       -2.8082455643        0.2670458038
 C       -10.9802715786       -1.6104407566        1.1382789422
 O       -10.5718180899       -0.4662335008        0.8262712891
 C       -11.3566953342       -1.9588217442        2.5768985365
 C       -11.7891724253       -0.5483410392        3.2234402891
 O       -11.3904456012       -0.2012595969        4.2939825429
 C       -12.6619804767        0.4120364681        2.4747074016
 C       -14.0820539501        0.5643149380        3.1380236613
 C       -14.9730537708        1.7264971136        2.7900621631
 O       -14.8427142414        2.3602669339        1.7925777787
 C       -16.1709846495        2.0543488415        3.7549126203
 C       -15.4111975738        2.8121837899        4.9811809633
 O       -14.8738908909        3.8629874699        4.7681876351
 C       -15.7291859115        2.2395981857        6.3246094419
 C       -17.1398680769        3.0042785900        3.0464469326
 C       -16.7946235478        0.6241541311        3.8843899915
 C       -12.7655725862       -2.9092100439        2.6286400040
 C       -10.2309760886       -2.7101265408        3.2070680367
 C       -13.2376231934       -0.0913750413       -3.3320574149
 C       -11.2026513695       -1.3837335567       -4.2678203146
 C        -9.4957965690        3.2947012438        2.0610982648
 C        -9.9126761181        5.6984728550        1.2375923404
 C        -1.6981510071        5.2090273811        0.1929579844
 C        -2.9398937389        7.1817040874        1.2421809730
 C        -7.9981434369        8.9685268159       -4.6754484690
 C        -6.9445891139       10.7319964980       -2.9747371004
 H        -9.2402738359       11.4023217637       -1.0475996543
 H       -10.5667131708       10.5691929744       -1.6314404934
 H        -9.5783023643       11.6264583603       -2.7287841992
 H        -5.0053820462        9.0660376548       -2.0605952546
 H        -4.8703338005        7.7141847082       -3.2045181249
 H        -5.1989718270        6.1400679552       -1.4901611137
 H        -5.1730771311        7.4905850164       -0.2651062510
 H        -5.9048095227        6.4198521103        1.0169275426
 H        -5.0345966221        5.3858356933        2.4261611216
 H        -6.8733760352        4.2842794323        2.6180456770
 H        -6.1789173647        3.4284195869        1.2570455386
 H       -10.2949815107        1.4245703543        0.3689159951
 H        -9.1256559127        1.5879208507       -0.8048723742
 H       -11.0910311808        2.5459134219       -2.4284991526
 H       -12.1410976824        1.6131008863       -1.1627399714
 H        -9.7933854104       -1.7128516374       -1.2308248067
 H       -10.2473603085       -3.2363469376       -1.9047098788
 H        -9.7125677011       -3.3014263123        0.6565397603
 H       -11.3846527482       -3.6573990981        0.5629230607
 H       -13.0212279560        0.0228598646        1.5223994405
 H       -12.2265194017        1.4107805091        2.5723334533
 H       -14.0689021272        0.3903039086        4.2421972264
 H       -14.7527598137       -0.2208733638        2.8131298969
 H       -16.0593967913        3.0999016389        7.0181397311
 H       -14.8924373685        1.6915793441        6.6157773849
 H       -16.5854038875        1.6619751870        6.2794291531
 H       -16.5117855704        3.9289856492        2.9686345189
 H       -18.0617628601        3.2408538562        3.6743091841
 H       -17.3583358671        2.6847831174        1.9469615183
 H       -16.1809511833       -0.1285341785        4.3122362153
 H       -17.1203566756        0.3700050482        2.9229390934
 H       -17.7734015834        0.7153380946        4.3699885753
 H       -13.5814889742       -2.2921536808        2.6062162536
 H       -12.7833907696       -3.5470006567        3.5474984675
 H       -12.7411299110       -3.6267301568        1.7233964285
 H        -9.2574222851       -2.3042198784        2.9697617192
 H       -10.3286355445       -3.7892766546        2.8220028542
 H       -10.5479774704       -2.8012492722        4.2439120287
 H       -13.5587574071        0.8282543949       -2.7637282928
 H       -13.9508155795       -0.8907724978       -3.3734128205
 H       -13.1433966173        0.1294525745       -4.3261710528
 H       -12.0830570184       -1.7888219975       -4.8234699898
 H       -10.3467533421       -1.9780935723       -4.0230803482
 H       -10.8101138251       -0.4797958562       -4.8052752886
 H       -10.3927047142        3.4174183761        2.6477928309
 H        -8.7990654758        3.2788477498        2.9382093070
 H        -9.5455420635        2.2022570946        1.8464457427
 H        -9.6403772913        6.4411326183        0.5310937397
 H        -9.7293352298        6.0092817491        2.2646084601
 H       -10.9862068615        5.4782405876        1.2881420747
 H        -0.9154803368        5.9225430993        0.1902625236
 H        -1.7455548815        4.6072959405       -0.7911793480
 H        -1.7122028381        4.4507087301        1.0659809899
 H        -3.9082443158        7.5334073067        1.3029715440
 H        -2.2521958297        8.0112278545        0.9149435955
 H        -2.6472941445        6.8770203048        2.2933980523
 H        -7.0637612422        8.4754967279       -4.9848130055
 H        -7.9982337490        9.9179189296       -5.2779420412
 H        -8.8059370330        8.3182435992       -5.0015381089
 H        -7.5982421588       11.4759848622       -3.1833571665
 H        -6.0538003246       10.6582483777       -3.6106750542
 H        -6.6284943326       10.7829853614       -2.0073449647
 Na       -9.7285117839        6.2733952181       -2.0661532628
