117

 C        -8.2781428846       10.9788409157       -2.2335166429
 C        -8.2169545140        9.5303391743       -2.6608410477
 O        -8.8154508430        8.6846778635       -2.0293620816
 C        -7.4144814787        9.2428413048       -4.0261758797
 C        -6.7936576196        7.9223664148       -3.6345223173
 O        -7.5987679856        6.9473127691       -3.6691338758
 C        -5.4100796667        7.6511675307       -3.1344209388
 C        -5.3275415017        6.8772659508       -1.8290522467
 C        -3.9715144795        6.2972116346       -1.6409701507
 O        -3.4939487782        5.8566780698       -2.6769913690
 C        -3.3321514834        5.9683604758       -0.1896495870
 C        -4.3966141871        4.9734767270        0.4644561368
 O        -4.1974958900        3.7293910415        0.4345128755
 C        -5.7375962219        5.4402469331        1.2668918134
 C        -6.7818042707        4.4297062769        1.0055149182
 C        -8.2847003843        5.0694942905        1.0837098463
 O        -8.3171082344        6.2759153732        0.9686300683
 C        -9.5819272221        4.1541473801        1.0720311540
 C        -9.3269639862        3.4860459596       -0.4580724972
 O        -9.4894003669        4.1967499755       -1.4603305495
 C        -9.1880042256        1.8490090781       -0.6240748565
 C       -10.4897772494        1.3198662985       -1.2674546394
 C       -10.2833980488        0.1830424932       -2.2399890070
 O        -9.2086671239        0.0669596917       -2.7791360998
 C       -11.5594228904       -0.7300263861       -2.5479635679
 C       -11.8143695449       -1.4880629585       -1.0487899048
 O       -12.7875559367       -1.2745601821       -0.3834115681
 C       -10.5442649776       -2.2833520005       -0.5022832581
 C       -10.8758159167       -2.9881861296        0.8153269368
 C       -10.9582564003       -1.8544756539        1.8981168911
 O       -10.5416520118       -0.7498105783        1.7171538310
 C       -11.9213857307       -2.2426799403        3.2434493247
 C       -12.2543808293       -0.8504565103        3.9451162713
 O       -11.9924247888       -0.6409937388        5.1089108977
 C       -13.0507852528        0.2363415996        3.1151073395
 C       -14.5766970112        0.5417854760        3.4393533803
 C       -15.0636801576        1.8062462778        2.7277142646
 O       -14.5203704920        2.0507414384        1.6491977380
 C       -16.2373749250        2.7660546471        3.2352376221
 C       -15.8139363240        3.7822343988        4.2498267635
 O       -15.2792922084        4.8256131269        3.8972726000
 C       -15.6300359586        3.2611983588        5.7363751129
 C       -16.8373514694        3.4857042189        2.0196194151
 C       -17.3639578030        1.7838969555        3.7458109944
 C       -13.3287705499       -2.8921372940        2.8324442453
 C       -11.0723131575       -3.2457565406        4.0738673137
 C       -12.7856725842        0.0911544703       -3.0305649188
 C       -11.1106827425       -1.8677781347       -3.4883685497
 C        -9.5499451721        3.1593584635        2.2787772715
 C       -10.8683034311        4.8958560414        1.1338080350
 C        -1.9756500404        5.2156947276       -0.4334268269
 C        -3.1947135827        7.2841811540        0.7055991844
 C        -8.3989082890        9.3009681164       -5.1791053690
 C        -6.3659317279       10.2894387873       -4.2730002046
 H        -7.4387507003       11.6718801828       -2.3228722601
 H        -8.5230940252       11.2957289351       -1.1971438614
 H        -9.0519183015       11.5748340275       -2.8704290421
 H        -5.0079965562        8.6394014189       -2.8532067052
 H        -4.8602241480        7.2025914820       -4.0025044346
 H        -6.1016701253        6.1235441102       -1.7829928417
 H        -5.5478316546        7.6247599431       -1.0242182902
 H        -6.0748592476        6.4679701528        1.1898620589
 H        -5.2872448957        5.4563857964        2.2378421583
 H        -6.6216463865        3.6063057444        1.7022514921
 H        -6.6925813882        3.8880782801       -0.0027706197
 H        -8.9461737685        1.4998510252        0.4109498766
 H        -8.3200113683        1.7572689664       -1.1709694145
 H       -11.1210306057        2.1074924439       -1.7234098726
 H       -11.1730268326        0.8692584948       -0.5317106951
 H        -9.7698416384       -1.6080793981       -0.1752593836
 H       -10.2016072481       -2.9466987838       -1.3631638810
 H       -10.1486612861       -3.7621341567        0.8926584249
 H       -11.8856150516       -3.4181157391        0.7172726464
 H       -12.7770314308        0.0286262739        2.0892408039
 H       -12.3309723076        1.1253324382        3.2023068780
 H       -14.5695569922        0.6958092829        4.5261009207
 H       -15.1130876280       -0.3913210769        3.0574255858
 H       -15.0546312611        4.0311059471        6.1171514307
 H       -14.9548663375        2.3515913483        5.6055310358
 H       -16.4494299777        2.9509626315        6.4766572181
 H       -16.2301933014        4.2982200295        1.7165065838
 H       -17.7976263218        3.8773919555        2.3024131340
 H       -16.9381470303        2.8075449936        1.2460301719
 H       -18.2759017724        1.7324656625        3.0828820099
 H       -17.7306451545        2.3306240780        4.5726597655
 H       -17.0941268189        0.7554361781        4.0829925182
 H       -14.1907324963       -2.1689619850        2.8718286614
 H       -13.5402419784       -3.6785177312        3.5015626949
 H       -13.3256769920       -3.3267491094        1.8693786797
 H       -10.0043693603       -2.9795472221        4.1093434685
 H       -11.2414267028       -4.2141532674        3.5210440913
 H       -11.3497813295       -3.3018483736        5.1333230739
 H       -13.7111676559       -0.1192835414       -2.4306420923
 H       -13.1425075876       -0.1278966158       -4.0333326871
 H       -12.6108343914        1.1900675495       -2.9583240658
 H       -11.7279610296       -1.9636859820       -4.3195851068
 H       -11.2179065713       -2.8074883972       -2.9197402880
 H       -10.0793770997       -1.5786912850       -3.7638072116
 H        -9.1409602222        2.1530048064        2.0740432459
 H       -10.5818305632        3.1220102047        2.6286865231
 H        -8.9768800632        3.5804616490        3.0980509759
 H       -11.1819360739        5.2459493825        0.1806565698
 H       -10.6490014822        5.8735781652        1.6781510960
 H       -11.6623497797        4.2294027796        1.4811423717
 H        -1.8790960083        5.0141190963       -1.5184400752
 H        -1.9411196361        4.3165265488        0.0457711097
 H        -1.1637744044        5.8096763604       -0.2179269548
 H        -4.2404091335        7.7771362680        0.7011077474
 H        -2.5103534508        8.0074439859        0.3983716039
 H        -2.9848935879        6.9542787513        1.7442150076
 H        -7.9859544833        8.5631965489       -5.8547104021
 H        -8.2284420049       10.1515564512       -5.8204716455
 H        -9.4625283582        9.3102665304       -5.1551280964
 H        -6.7054502960       11.3885447110       -4.4798282949
 H        -5.8989861707       10.0003511029       -5.1955006649
 H        -5.5813250728       10.3165833064       -3.4080960120
 Na       -8.5937478752        6.3663354233       -1.7921026263
