117

 C        -8.2770058592       11.0969957096       -2.3098912041
 C        -8.0583365162        9.5990168402       -2.6216549776
 O        -8.5549802132        8.7626755327       -1.8977419932
 C        -7.2652560909        9.2345868503       -4.0405173953
 C        -6.9016036557        7.7816481220       -3.7781884628
 O        -7.7234248033        6.8652693497       -3.8835860736
 C        -5.4394762900        7.6216740096       -3.3252734150
 C        -5.3922619948        7.0063526372       -1.8964282668
 C        -4.0541074725        6.2209932569       -1.6622900707
 O        -3.4547687405        5.7232747862       -2.6335561968
 C        -3.4604211017        5.9204003774       -0.2494419210
 C        -4.4185188121        4.8688247388        0.5502368610
 O        -4.3806799539        3.6897447720        0.4025965429
 C        -5.7592336146        5.3921559939        1.2935070729
 C        -6.9161503700        4.3931067485        1.0459858579
 C        -8.2812213578        5.0709992335        1.1027480513
 O        -8.4275648392        6.2687903809        0.8757254744
 C        -9.5385820238        4.0787562357        1.0688677997
 C        -9.3842545315        3.4045163929       -0.4117726851
 O        -9.3579036108        4.1965299666       -1.3478792756
 C        -9.1934953674        1.9612009327       -0.6669844890
 C       -10.4131317506        1.3044257760       -1.1839675030
 C       -10.1752849210        0.1605138102       -2.2300739282
 O        -9.1503755433       -0.1293250494       -2.8112376773
 C       -11.4661492744       -0.7322462648       -2.3304810426
 C       -11.7171080926       -1.2664289642       -0.9024127237
 O       -12.8012301249       -1.1544329698       -0.3434655074
 C       -10.5401528830       -2.1576646824       -0.3870575182
 C       -10.8707841140       -2.9077879985        0.9094167831
 C       -11.1913814118       -1.9464674418        1.9568106612
 O       -10.5712288648       -0.9028105152        1.8642280354
 C       -12.0181661040       -2.2656559999        3.1694252514
 C       -12.4096495908       -0.7890749143        3.9512430519
 O       -12.0940555545       -0.6422157532        5.0976017541
 C       -13.0962147886        0.2624115933        3.1403333519
 C       -14.5045439487        0.5831657274        3.5456939389
 C       -15.0117282645        1.7533618611        2.6433103452
 O       -14.4694246116        2.0571514711        1.6219514847
 C       -16.2911008426        2.6503813270        3.1548842853
 C       -15.5158075417        3.7723324601        4.1923444394
 O       -15.4089958386        4.9292684592        3.8928908684
 C       -15.6395469655        3.5821498239        5.8407813641
 C       -16.7116814837        3.4816244042        1.7696513604
 C       -17.5472255778        1.9342750097        3.7718890485
 C       -13.2858460080       -2.9639487932        2.7909159339
 C       -11.1688543587       -3.2311505798        4.0740145622
 C       -12.6484928041        0.0509783929       -2.8126242045
 C       -11.0661023664       -1.9041254170       -3.4256617454
 C        -9.4687364631        3.0647079509        2.2838318082
 C       -10.8139991536        4.9424181295        1.0363874531
 C        -2.0737872728        5.3266347145       -0.4708997580
 C        -3.1912040366        7.2470239344        0.5429409507
 C        -8.4543631543        9.0543065122       -5.0168511875
 C        -6.2119711670       10.3245219371       -4.4490731896
 H        -7.5325953283       11.9206128209       -2.3618155867
 H        -8.6295814514       11.3736487467       -1.2542672998
 H        -9.0322591504       11.5125850854       -2.9018108837
 H        -4.9011772500        8.6044505776       -3.4090570122
 H        -4.9495731670        6.8936557557       -3.9156331138
 H        -6.2025641586        6.3093036009       -1.9250977458
 H        -5.6111956394        7.6635191472       -1.0423803764
 H        -5.9944195852        6.4422085852        0.9252222478
 H        -5.4713301800        5.7351741265        2.3122379303
 H        -6.8999150774        3.4961616726        1.7448367055
 H        -6.8719774093        3.9353374301        0.0555826946
 H        -8.8011105032        1.7001348880        0.1958372673
 H        -8.4390561955        1.9632329393       -1.4341281349
 H       -10.9861155104        2.0895244382       -1.7399170243
 H       -11.2022286996        0.9350233184       -0.4838644830
 H        -9.6596186465       -1.5936094907       -0.1702562837
 H       -10.3729674349       -2.8885492741       -1.2263523447
 H        -9.7613325979       -3.2237385302        1.0375926117
 H       -11.5031495305       -3.7628996568        0.7013013862
 H       -12.8705836955        0.1455387719        2.0767747459
 H       -12.4148184999        1.1764227734        3.2808123581
 H       -14.4803691671        0.8909575202        4.5737585226
 H       -15.0995306918       -0.3942148147        3.3383006514
 H       -15.3004156977        4.5389638996        6.1865655088
 H       -15.0670651626        2.7250503096        6.1816753218
 H       -16.6479852543        3.3208707976        6.1902428617
 H       -16.0122379618        4.2368781012        1.5792198707
 H       -17.6410248821        3.9255555994        1.9221206601
 H       -16.8904793864        2.8176471109        0.9337505915
 H       -18.4605257382        2.2445159432        3.2450279322
 H       -17.7026393629        2.3547011259        4.7951493470
 H       -17.5124055311        0.8783914198        3.8140365377
 H       -14.2437752927       -2.3664366407        2.8178198165
 H       -13.4144313020       -3.7198807992        3.5527261560
 H       -13.2696569294       -3.3766752995        1.8306784515
 H       -10.1907847825       -2.7425990418        4.4773823606
 H       -10.9437604190       -4.1322598681        3.5469701811
 H       -11.7767213823       -3.3597005101        5.0490914324
 H       -13.5601513296       -0.2434072294       -2.3320716465
 H       -12.9334648053        0.0130959785       -3.8955139104
 H       -12.4913056429        1.1736111080       -2.5401716027
 H       -11.5425552120       -1.4593580851       -4.3737728797
 H       -11.6093597826       -2.8906442543       -3.2727517886
 H       -10.0703936785       -1.8656532607       -3.5584837743
 H        -9.5902073321        1.9333764259        1.9974631852
 H       -10.2563392386        3.3903740744        2.9194879913
 H        -8.5258290104        3.1597535596        2.8958222397
 H       -10.8642860646        5.7120342611        0.2521412884
 H       -10.7830514879        5.5059412518        1.9483373781
 H       -11.6331710410        4.2942062994        0.8929916512
 H        -2.1072969019        4.8304392090       -1.4772774609
 H        -1.6894004444        4.5639028044        0.2471118287
 H        -1.3358801254        6.0604748217       -0.6770787256
 H        -3.9634163689        8.0258348237        0.2230347936
 H        -2.2419889981        7.7265472720        0.3120414015
 H        -3.1871276557        7.0761713192        1.5921433846
 H        -8.1843337803        8.1794155074       -5.6151551582
 H        -8.5393537452        9.7959975566       -5.7936293585
 H        -9.5116054661        8.9958252421       -4.6679960931
 H        -6.6941810820       11.3288488110       -4.4280133237
 H        -6.0647887786       10.0941890173       -5.4713793730
 H        -5.2974674125       10.4665871970       -3.9548849877
 Na       -8.5339378335        6.3787140526       -1.7798842937
