117

 C        -8.2812045802       11.1841349563       -2.3348370793
 C        -7.9882004984        9.7497790676       -2.6571309878
 O        -8.2063114701        8.9006503780       -1.8012405914
 C        -7.4037616287        9.2403074246       -4.1087279890
 C        -6.8167170300        7.7382345511       -3.8801878152
 O        -7.5736536410        6.8279784086       -3.9759270979
 C        -5.3437644128        7.3104402099       -3.4435416715
 C        -5.3619240691        6.9534071094       -1.8901718725
 C        -4.0975639751        6.0581047185       -1.7034350524
 O        -3.5453494466        5.6851139693       -2.6758952260
 C        -3.5810192332        5.8263205265       -0.2738794233
 C        -4.5569133877        4.8679087366        0.4054438206
 O        -4.3323397021        3.7184567170        0.3211790407
 C        -5.7208132862        5.4508580179        1.2069754548
 C        -6.9115098992        4.4579108223        1.1610946498
 C        -8.2286675087        5.0531300585        1.0278205569
 O        -8.5232150209        6.2114924720        0.7233511711
 C        -9.4918671355        4.1449010933        1.1040874126
 C        -9.2638970250        3.4334123779       -0.3922680839
 O        -9.2402730353        4.2610522952       -1.2652560415
 C        -9.0369209926        1.9312844174       -0.7626246047
 C       -10.3380238532        1.3720738678       -1.2067034346
 C       -10.1506134850        0.0894983318       -2.1487247232
 O        -9.0764334901       -0.0936383445       -2.6810489822
 C       -11.4111304018       -0.7208711168       -2.2951803160
 C       -11.7084924417       -1.4607084213       -0.9419607521
 O       -12.6354505492       -1.0276289549       -0.2877249196
 C       -10.4761310272       -2.2538093134       -0.4176680070
 C       -10.8004027423       -2.9760088377        0.9900016917
 C       -11.1786372308       -1.8597471879        2.0589090426
 O       -10.6051581438       -0.7564152841        2.1572462007
 C       -12.2264525489       -2.2868384976        3.2468058988
 C       -12.4639243884       -0.9131788154        3.9514095657
 O       -12.1885342527       -0.7576240286        5.1179242371
 C       -13.0997815659        0.2458570559        3.0628675203
 C       -14.5154986278        0.7179637999        3.6505435935
 C       -15.0392678639        1.8098811436        2.6576473733
 O       -14.4256214677        2.0132827099        1.6398438773
 C       -16.2566273718        2.7426141916        3.2054131986
 C       -15.8335292991        3.9107069283        4.1894259516
 O       -15.3994290930        4.9117327451        3.6770073384
 C       -15.6525597093        3.7068088254        5.6814844499
 C       -16.5149162201        3.4548394674        1.8275206965
 C       -17.4048934690        2.1075809059        3.7141251531
 C       -13.4766952974       -3.0410308421        2.7829893055
 C       -11.3031646763       -3.0394472108        4.1587914420
 C       -12.6273945861        0.0560896345       -2.6828099423
 C       -11.2039312501       -1.9382572482       -3.3240011596
 C        -9.4592728379        3.0278999757        2.1776017521
 C       -10.8259518607        4.9414987001        1.0248183472
 C        -2.1193267381        5.1926027988       -0.3382909002
 C        -3.4291413328        7.2282607442        0.4702295804
 C        -8.6772976855        9.0697605324       -5.0084618092
 C        -6.3508980074       10.1384812733       -4.5995873414
 H        -7.4396442173       11.8607846625       -2.2692149963
 H        -8.7291598409       11.4129636151       -1.4072209280
 H        -8.8814832574       11.7353821462       -3.0073764769
 H        -4.5629562731        8.0549197281       -3.6362284114
 H        -5.0092955304        6.3726549825       -3.8774607556
 H        -6.3383373970        6.5426892133       -1.5740237090
 H        -5.2866098225        7.8110549453       -1.2506940677
 H        -5.8314068769        6.5331634068        0.9172664568
 H        -5.3100100074        5.7948204691        2.2287123885
 H        -6.9039891388        3.7819986588        2.0514564124
 H        -6.8053475899        3.7666512497        0.3409600043
 H        -8.6429372496        1.5084412627        0.2189629840
 H        -8.2575681354        2.0401740723       -1.5453169193
 H       -10.9309024332        2.1256575829       -1.7401768340
 H       -11.0417430207        1.1009262631       -0.4129232739
 H        -9.7756654205       -1.3331322720       -0.1875459786
 H       -10.0703922651       -2.8897579123       -1.1454485189
 H        -9.8780522313       -3.5943194689        1.1422030672
 H       -11.7279665249       -3.5499873594        0.7132743892
 H       -13.1926956218        0.0187678581        1.9789337199
 H       -12.4077642564        1.0663518573        2.9443162940
 H       -14.5038475029        1.1041796717        4.6945118624
 H       -15.0889878974       -0.1667468355        3.5388640862
 H       -15.2131365384        4.6244258402        6.2400611792
 H       -15.1488629322        2.7954369457        5.7450920844
 H       -16.5451416995        3.4018519503        6.0840637158
 H       -15.6870152229        4.1173162914        1.5379310394
 H       -17.4347758089        4.0442045097        1.9752907180
 H       -16.9249653806        2.7435016538        1.0883537926
 H       -18.2716345918        2.5442587281        3.3389057234
 H       -17.5374124703        2.1177902837        4.8141795616
 H       -17.3577185291        1.1031670669        3.3675513347
 H       -14.2924369199       -2.4638535490        2.4932910142
 H       -13.8668591396       -3.7199046683        3.6073196018
 H       -13.2255615688       -3.5751731012        1.7906226614
 H       -10.5830955249       -2.3770855124        4.6543155529
 H       -10.6973938421       -3.8056937472        3.5824178146
 H       -11.8909160449       -3.4061619443        5.0047964790
 H       -13.5309471907       -0.5360493680       -2.4680168328
 H       -12.7683212618        0.3189870303       -3.7602139966
 H       -12.7101785151        0.9613042673       -2.1307324196
 H       -11.0703479338       -1.4995536216       -4.3511248006
 H       -12.1542623947       -2.4062054332       -3.3651240563
 H       -10.2524090709       -2.5208648126       -3.0904286598
 H       -10.1714821716        2.2743811335        1.8640513811
 H        -9.7437661419        3.5343136478        3.1681803714
 H        -8.4504177400        2.5322047785        2.2680418874
 H       -10.7757764892        5.9165376883        0.5379309637
 H       -11.1580791927        5.1153992519        1.9867458990
 H       -11.4973488089        4.3201000414        0.4495767454
 H        -2.2047893040        4.1740235777       -0.7028373772
 H        -1.5545505829        5.1244464107        0.6894272462
 H        -1.4293614775        5.6316142510       -1.2036379876
 H        -4.0520671991        7.9436772522        0.1005533483
 H        -2.4169988773        7.6594108393        0.1181677663
 H        -3.3312118698        7.1776317279        1.5458303341
 H        -8.5949223971        8.3648551032       -5.8501110767
 H        -8.9500919164       10.0380330011       -5.4777095652
 H        -9.6256423611        8.8295263234       -4.4405921156
 H        -6.6915754289       11.0794993142       -4.6543902060
 H        -6.0306221410        9.7174593072       -5.5829434907
 H        -5.5349932996       10.3066472315       -3.9981789011
 Na       -8.5467817307        6.3903497514       -1.6904641759
