117

 C        -8.1798965998       11.1278482038       -2.5411477005
 C        -7.8518440789        9.7190426592       -2.6205618657
 O        -7.8975969926        8.9517569921       -1.6406433302
 C        -7.5043476484        9.1483889393       -4.0911870186
 C        -6.9021802156        7.6866118178       -3.8525951419
 O        -7.6159561160        6.6809600352       -3.9867028880
 C        -5.5027823544        7.2781243588       -3.5493443094
 C        -5.2586806710        6.9415628041       -2.0859431363
 C        -3.9845759863        6.1216397083       -1.8367767232
 O        -3.5195005670        5.4597997459       -2.7343087408
 C        -3.5203819514        5.8624586985       -0.3328785008
 C        -4.5366561224        4.8849001311        0.3622052281
 O        -4.4369857860        3.6330205197        0.2668696405
 C        -5.7657537222        5.4998902512        1.1255661131
 C        -6.8897246150        4.5130772579        1.4513822506
 C        -8.2735530966        5.1609797974        1.0725766721
 O        -8.3371884711        6.2472907001        0.5403869506
 C        -9.5477453859        4.0077353096        1.0081885164
 C        -9.0971606893        3.5477511891       -0.4817880078
 O        -9.1342074192        4.2971670449       -1.4768006651
 C        -8.9072129560        1.9959267910       -0.7158902503
 C       -10.2949864904        1.4701243863       -1.2220621424
 C       -10.1396610787        0.1104387916       -2.1194256229
 O        -9.0234334213       -0.0950215589       -2.5249445634
 C       -11.4898978224       -0.8009882790       -2.3270975197
 C       -11.4909586139       -1.3691148681       -0.8132442555
 O       -12.4306917444       -1.1343103497       -0.1187992971
 C       -10.4208079592       -2.3067759528       -0.2419188387
 C       -10.8857962940       -2.8509560163        1.1715808662
 C       -11.2299810916       -1.8019039285        2.1351846270
 O       -10.6171774310       -0.7609689794        2.2846262545
 C       -12.2095683572       -2.2854275531        3.2609162070
 C       -12.6686601120       -1.0364572867        3.9649455766
 O       -12.3782347485       -0.7716925113        5.1254343048
 C       -13.2463427636        0.1098788429        3.0970162127
 C       -14.4498993475        0.8128843756        3.7695250312
 C       -14.8875107891        2.0100004938        2.8698387696
 O       -14.4615046398        1.9806416725        1.7018470603
 C       -16.2369699545        2.8056785426        3.0700029960
 C       -15.7261193824        4.0710077900        3.9835494641
 O       -15.3427711268        5.1590609972        3.5493866562
 C       -15.6573927963        3.7486809941        5.5436794731
 C       -16.5464916162        3.5661571128        1.7238304729
 C       -17.4223404147        1.9505446280        3.6682659052
 C       -13.5396155556       -3.0067560320        2.7867587860
 C       -11.4046106558       -3.0777599659        4.3241050023
 C       -12.7019844928        0.0692091051       -2.6710177422
 C       -11.2755454369       -1.9793302547       -3.4164653487
 C        -9.5038766683        2.9585739704        2.1498712659
 C       -10.8427768570        4.7391773617        1.0410124539
 C        -2.2029722385        5.0676316911       -0.2210753018
 C        -3.5664208642        7.2178301751        0.5032327280
 C        -8.7824419422        9.1708669581       -4.9466068083
 C        -6.4724424075       10.0109765002       -4.8434078265
 H        -7.3106762638       11.6823917763       -2.3650373237
 H        -8.8309156410       11.4917876256       -1.7989273181
 H        -8.5861062668       11.7296435047       -3.3831013591
 H        -4.8534163701        8.0937439088       -3.7771281707
 H        -5.0577509492        6.3657358891       -4.0852739874
 H        -6.0782145547        6.3350060942       -1.5858292034
 H        -5.3070148481        7.8462518167       -1.4800467948
 H        -5.9415643110        6.4686549344        0.7398841391
 H        -5.3920429522        5.9596742145        2.0471967161
 H        -6.7281047598        4.1406202571        2.4309821194
 H        -6.7935716921        3.6232843432        0.7910726606
 H        -8.6196870851        1.3635411730        0.2905753869
 H        -8.1082003283        2.0235590865       -1.5247562298
 H       -10.8783679372        2.1944346110       -1.7568874715
 H       -10.9624479608        1.2147867877       -0.4402862565
 H        -9.4145021556       -1.7048943748       -0.3286670888
 H       -10.4705011771       -3.1769044530       -0.9034151322
 H       -10.0409155767       -3.3342811039        1.5099511635
 H       -11.7369438193       -3.4914424136        0.8764342233
 H       -13.3811289394       -0.1224058571        2.0522045512
 H       -12.4924061176        0.8512476654        2.9798327267
 H       -14.1971686953        1.2071075603        4.7822647641
 H       -15.2704288765        0.1805593518        3.8338011986
 H       -15.3283876739        4.5787102169        6.1031478058
 H       -15.2677030561        2.7715034308        5.8106546042
 H       -16.7432022112        3.5703399100        5.7210505693
 H       -15.6380778040        4.0623638366        1.2255969784
 H       -17.3268066933        4.3530247068        2.0626051945
 H       -17.2743157192        3.0281978406        1.0883419927
 H       -18.3114370612        2.5307298731        3.8385484838
 H       -17.1817860327        1.4814274227        4.5648694964
 H       -17.6339252720        1.1596376325        2.9116494524
 H       -14.1507158221       -2.3920910125        2.1069918255
 H       -14.1652489862       -3.1354439733        3.6922561864
 H       -13.4332221650       -3.9040949824        2.1041703557
 H       -10.6987849369       -2.5624560396        4.8806002046
 H       -10.8231682093       -3.8743546822        3.7662422737
 H       -12.1301300789       -3.4397090184        4.9635503761
 H       -13.5845858634       -0.4334788062       -3.1027163046
 H       -12.4659676129        0.7949428527       -3.3939472677
 H       -13.0290881118        0.6086323243       -1.8431158098
 H       -10.5915103111       -1.7525030197       -4.1666174292
 H       -12.2253376086       -2.0856424023       -3.8697245961
 H       -10.8040153774       -2.8982897159       -2.8647227968
 H       -10.5178741893        2.7525652682        2.3833115015
 H        -8.9873189170        3.4299209482        3.0334235217
 H        -9.0145825475        2.0573091989        1.8630171915
 H       -10.6212972076        5.7432822418        0.8172882814
 H       -11.2219917332        4.7312225509        2.1069762876
 H       -11.6059240906        4.4133072690        0.3193060903
 H        -2.3471096451        4.1043066978        0.3513755023
 H        -1.4466303981        5.6157668405        0.3460068276
 H        -1.7723061905        4.6610504759       -1.1864885211
 H        -4.5219431166        7.6502265885        0.2914009828
 H        -2.9123750218        7.9913568282        0.1662776068
 H        -3.2610827784        7.0226047196        1.5505862802
 H        -8.7003895554        8.9940930243       -6.0248341449
 H        -9.1775101251       10.2156498690       -4.8358681382
 H        -9.6330252402        8.5503027480       -4.6271786313
 H        -6.8682873855       11.0015183448       -5.0251103415
 H        -5.9998537857        9.4624236892       -5.6263052368
 H        -5.7060322762       10.4288387857       -4.1433770534
 Na       -8.5736530724        6.5320477704       -1.6403871744
