117

 C        -7.7923324882       11.0792883236       -2.6286005883
 C        -7.6176714273        9.6133534894       -2.7644000101
 O        -7.5177022442        8.9766027452       -1.7295209812
 C        -7.5964019935        8.9469769129       -4.1522886338
 C        -7.0070382463        7.5496452648       -3.8702379701
 O        -7.8172461685        6.6766409822       -3.7802774004
 C        -5.5848068169        7.2094599708       -3.7328690021
 C        -5.2144350910        6.7809292637       -2.2630395287
 C        -4.0013166513        5.9053682312       -1.9288423740
 O        -3.3545194433        5.2544881004       -2.6680145451
 C        -3.6383062273        5.8136126829       -0.3467151905
 C        -4.7554192145        4.7866029441        0.3275026031
 O        -4.8493017556        3.6406201050        0.1007096399
 C        -5.6804308823        5.5877988668        1.3346431113
 C        -6.9255412214        4.8072897997        1.8141108594
 C        -8.2694147444        5.0615484202        1.1180553224
 O        -8.3081719209        6.1399534883        0.5245798614
 C        -9.3528363850        3.9575691796        0.8387031351
 C        -9.0369754678        3.5109209895       -0.6624450440
 O        -8.9595266774        4.3940218770       -1.4840642067
 C        -8.9706006996        2.0652217445       -1.0308025673
 C       -10.3299163591        1.4282160403       -1.3286218817
 C       -10.0943574707        0.0489582738       -1.9851590170
 O        -9.0089569514       -0.2434066182       -2.4309262635
 C       -11.4112327435       -0.8764620857       -2.1137427086
 C       -11.5176096620       -1.4434356957       -0.6819202856
 O       -12.3971685341       -1.0259985486        0.0420634289
 C       -10.3912599631       -2.3880203445       -0.0600799828
 C       -10.7456351446       -3.0352432308        1.2879229147
 C       -11.1228118511       -1.9236412434        2.3687041728
 O       -10.6249457279       -0.8054352814        2.2787203139
 C       -12.2389119796       -2.2917953013        3.4283373904
 C       -12.8492724020       -0.9369566541        4.2718996434
 O       -12.8932928189       -0.7371109722        5.4392500705
 C       -13.5818600880       -0.0477533017        3.2755783049
 C       -14.3515654538        1.2549046314        3.7755244269
 C       -14.8240453863        2.1789436244        2.6240946523
 O       -14.2139809090        2.1829354762        1.5926481366
 C       -16.2091732296        2.9015421374        2.8429011832
 C       -15.7104332329        4.2019320767        3.9535321432
 O       -15.3036854150        5.2059242687        3.4029480321
 C       -15.7821589107        3.9787412375        5.4162405543
 C       -16.7290314857        3.5932812971        1.5739062425
 C       -17.3881923831        2.2435180042        3.6597720789
 C       -13.4281721143       -2.9571162592        2.7272237896
 C       -11.6979927440       -3.3287982334        4.4272992960
 C       -12.6935935938        0.1046970861       -2.3073387177
 C       -10.9849297922       -1.8803533517       -3.2148216110
 C        -9.3337551200        2.8294507025        1.9468372160
 C       -10.7223457234        4.7970961447        0.7080812322
 C        -2.1858803370        5.1793750438       -0.2950616802
 C        -3.5160458049        7.1742953913        0.3434869056
 C        -9.0614655419        8.9401361997       -4.7244798982
 C        -6.5791192405        9.7507900829       -5.0120010995
 H        -6.9897491837       11.7128313764       -2.1103501147
 H        -8.7760678450       11.3026592263       -2.1430788172
 H        -7.9516564838       11.7525725921       -3.4749797725
 H        -4.8103733763        7.9925441180       -3.9913974612
 H        -5.4695712901        6.3914864031       -4.4274859550
 H        -6.0180513249        6.5828068687       -1.5730869576
 H        -4.9234078559        7.7755097024       -1.8604513918
 H        -5.8403132013        6.4282219595        0.6902914109
 H        -5.2385740948        6.2428916854        2.0426460328
 H        -7.0119730695        5.0176726068        2.9342233346
 H        -6.5904475383        3.7699754899        1.7186855007
 H        -8.6847974909        1.5768697233       -0.1760520153
 H        -8.3246297087        1.9007163585       -1.8162286746
 H       -10.8998944895        1.9129305536       -2.1341790475
 H       -11.0672439183        1.3744728974       -0.4914371826
 H        -9.6114057632       -1.6802786805       -0.0501607118
 H       -10.2361446013       -3.1242536555       -0.8721850506
 H        -9.7982899741       -3.5458663182        1.5887123382
 H       -11.5416856976       -3.6801615197        1.0241341111
 H       -14.1008325904       -0.6237463615        2.4694475158
 H       -12.8126605375        0.4963261358        2.6044560238
 H       -13.8434547588        1.7783957640        4.5891290083
 H       -15.4077493753        1.0054986741        4.1486645575
 H       -14.9160272505        4.6925066421        5.7800587692
 H       -15.4763402347        2.9391169263        5.5492859537
 H       -16.7298487614        4.0795561544        5.9186346446
 H       -15.8147198711        3.7550715005        1.0955285504
 H       -17.3443239199        4.4359580471        1.6011337183
 H       -17.3920845715        2.9068010582        1.0528342460
 H       -17.8882218254        3.0913201366        4.1711355538
 H       -17.1501290697        1.4072325807        4.4247513243
 H       -18.1266836228        1.8156272100        3.0078582995
 H       -13.4436348162       -2.7735740881        1.7001378158
 H       -14.3622506733       -2.6028448381        3.0877654837
 H       -13.3760261476       -4.0245959076        2.7153373679
 H       -10.7456187695       -2.8655557801        4.7573313586
 H       -11.3636435953       -4.2745574261        4.0755942375
 H       -12.4223404501       -3.3877895710        5.2701260615
 H       -13.3172896343       -0.2208190192       -3.1265331819
 H       -12.5587113720        1.2015833405       -2.4910426613
 H       -13.4345082447        0.0883389580       -1.4918625586
 H        -9.8965290243       -2.1177284946       -3.1180915478
 H       -11.1295495339       -1.4268553026       -4.1837052729
 H       -11.4403203377       -2.8822131503       -3.1658325962
 H        -9.8670882362        3.2518813402        2.7814381559
 H        -8.2756962380        2.6556195583        2.1974242549
 H        -9.7181400094        1.8773392362        1.5664903657
 H       -10.6640220095        5.5947106447       -0.1278343514
 H       -10.9076224300        5.2353340049        1.6577388865
 H       -11.5786543804        4.1401975979        0.4413850696
 H        -1.5831033185        5.5336133671        0.4248985684
 H        -1.6802623928        5.3839707088       -1.2234820424
 H        -2.1190773243        4.1220493532       -0.1045786704
 H        -4.3427788491        7.8494045108        0.4124453731
 H        -2.7515859493        7.7905043538       -0.2190308452
 H        -2.9871225492        6.9395945980        1.2430512467
 H        -9.2626828608        9.1865361474       -5.7470477960
 H        -9.7620232117        9.5135500101       -4.1199882960
 H        -9.3334340474        7.8828638895       -4.7590553120
 H        -6.9911749216       10.7065504577       -5.2656501277
 H        -6.0913039015        9.0900235649       -5.8065718165
 H        -5.7736624806       10.1138344196       -4.3768217621
 Na       -8.6563134282        6.8521714253       -1.6639249695
