117

 C        -6.4607734745       10.6053874904       -2.9015658203
 C        -7.2370915150        9.3071608591       -2.9130363618
 O        -7.7517035212        8.8900807246       -1.8417372349
 C        -7.6692805834        8.5812374180       -4.2436247785
 C        -7.3745700038        6.9880453826       -4.0100244854
 O        -8.2195700890        6.1182300120       -3.7997648942
 C        -5.8946515239        6.6233151313       -3.7317287604
 C        -5.4356084249        6.4715374924       -2.2719536341
 C        -4.0032323668        5.7918418466       -2.0176491330
 O        -3.3037427244        5.2326400812       -2.8545105015
 C        -3.7946994503        5.5895467699       -0.4288175684
 C        -4.9989746566        5.2017234309        0.2508930008
 O        -5.9660436941        4.6488961428       -0.3536453367
 C        -5.4513003588        5.6647236203        1.6046766320
 C        -6.7522581337        4.9787787388        2.1291364280
 C        -7.8018436208        5.1980551739        0.9736204203
 O        -7.9459498719        6.3607992588        0.5570770965
 C        -8.9686410089        4.1173441191        0.5647221275
 C        -8.8863414855        3.7003253045       -0.9783351865
 O        -8.5809938338        4.5451135917       -1.8061904928
 C        -8.8191730764        2.2239345177       -1.5407429341
 C       -10.0703263574        1.3964301359       -1.4073154477
 C        -9.9568864263       -0.0791554739       -1.6158208836
 O        -8.8448242212       -0.5080755440       -1.8242240150
 C       -11.2480667778       -0.9581393274       -1.6580232709
 C       -11.3907287558       -1.5196467670       -0.2107548074
 O       -12.4297081421       -1.3998838173        0.4294924768
 C       -10.1713827096       -2.2143058569        0.7121749053
 C       -10.6754547032       -2.9316068679        1.9491027320
 C       -11.3693548589       -1.9221894228        2.8728243832
 O       -10.9299390161       -0.7894899611        3.0221159340
 C       -12.6911877910       -2.2489290855        3.5232159350
 C       -13.3769449529       -0.9374656967        3.9831286269
 O       -13.6665672954       -0.7164285735        5.1634577342
 C       -13.8494530144       -0.0172502414        2.8947019681
 C       -14.2463572366        1.4087277526        3.4318874301
 C       -14.5931455437        2.5222807768        2.4412648043
 O       -13.9457913320        2.7489384387        1.4218121688
 C       -15.9111848275        3.2564621030        2.8104719819
 C       -15.5078450534        4.6352419493        3.5557575984
 O       -15.0656297249        5.6398051772        3.0209541661
 C       -15.7922728942        4.5823920141        5.0494417726
 C       -16.5967355986        3.7987121840        1.4087868799
 C       -16.9591887258        2.2876905957        3.6080198074
 C       -13.6118133791       -3.1478158107        2.7198665685
 C       -12.1960440491       -2.9135548432        4.8223775512
 C       -12.5862635356       -0.2393587977       -2.0127716310
 C       -11.1827977321       -2.1437766072       -2.7773736666
 C        -8.9994846616        2.8722202546        1.6114394845
 C       -10.3065921695        4.8885585524        0.5218535125
 C        -2.6803945744        4.5016691890       -0.1610599104
 C        -3.3252417013        7.0542611660        0.0328619728
 C        -9.2114320569        8.8478316222       -4.5141378609
 C        -6.9252632896        9.1380892889       -5.5249728365
 H        -6.6414078444       11.2463159668       -2.0367040281
 H        -6.3090244550       11.2765847266       -3.7680346597
 H        -5.3611745315       10.4053248432       -2.7231036163
 H        -5.3678973459        7.3950280792       -4.2427620751
 H        -5.5900780072        5.7021924993       -4.3059187069
 H        -6.3156081405        6.1450044547       -1.6884905231
 H        -5.2708354190        7.4451196901       -1.8570439744
 H        -5.6264890997        6.7316026729        1.7861858144
 H        -4.6162790144        5.6349568306        2.3508098152
 H        -7.0368142438        5.6085562164        3.0019258061
 H        -6.5455771074        3.9098990518        2.2801971316
 H        -7.9485671445        1.8009952808       -1.1416354778
 H        -8.4739271604        2.3196278422       -2.6252252526
 H       -10.8348429560        1.7164983337       -2.1640574531
 H       -10.4198013207        1.7029686042       -0.4142123083
 H        -9.6136825586       -1.3375316504        1.0106829958
 H        -9.4502618107       -2.7195592968        0.1543329841
 H        -9.7108938264       -3.2751351826        2.3252466639
 H       -11.2277420400       -3.8970704597        1.6811875820
 H       -14.7651209683       -0.5703127328        2.4371840591
 H       -13.0636563177       -0.0663413548        2.1277361988
 H       -13.3692203357        1.6859131704        4.1505837180
 H       -14.9039122859        1.3369271443        4.2351727053
 H       -15.4017313524        5.4397630078        5.4512771141
 H       -15.5945844222        3.7146975827        5.7840272596
 H       -16.9274368773        4.7607084997        4.9944629782
 H       -16.1321366167        4.7305389837        1.0567157342
 H       -17.6742504403        3.9732651441        1.6113882920
 H       -16.5340149129        3.1040866831        0.6219012360
 H       -18.0133380544        2.6418019769        3.6686364419
 H       -16.6563690635        2.0792901034        4.6245156905
 H       -17.0692913964        1.2583882359        3.0920036879
 H       -13.9687717701       -2.6582838773        1.7960730163
 H       -14.4797146563       -3.4098671955        3.1912999444
 H       -13.1677847585       -4.0913612272        2.5662521214
 H       -11.6110042285       -2.3324208535        5.5307330545
 H       -11.6740601649       -3.8843976435        4.5183355370
 H       -13.0737060131       -3.3735170765        5.2475821357
 H       -13.4592885752       -0.7825518409       -1.5977509197
 H       -12.7137428012        0.0407240736       -3.0500530904
 H       -12.7149619900        0.7504666236       -1.6182091293
 H       -12.1167428732       -2.3328087362       -3.2997300598
 H       -10.9655900870       -3.2230059631       -2.4271712494
 H       -10.3352119591       -1.8626034390       -3.3635345690
 H        -8.2856742545        2.0440879358        1.3291586446
 H       -10.0089911877        2.5338690291        1.6101795300
 H        -8.7267937139        3.3124905056        2.5791943310
 H       -10.1691331375        5.8223197878        0.0744540785
 H       -10.8110034198        4.9614457344        1.5369547297
 H       -11.0984851679        4.3021175514       -0.0014631550
 H        -2.3098238232        4.1046262692       -1.1507564248
 H        -2.9205571752        3.6772374020        0.4152861870
 H        -1.8176604699        4.8592885458        0.2583804193
 H        -4.1431444424        7.7574005314        0.0548585688
 H        -2.5233714041        7.3926417912       -0.5375472778
 H        -3.1043484440        7.1038110998        1.0875411044
 H        -9.3338176822        9.1110655248       -5.5567617865
 H        -9.5089410344        9.7513952164       -3.9969067032
 H        -9.8335918256        7.9871709863       -4.4204607214
 H        -7.6761750733        9.8058878449       -5.9085528118
 H        -6.7891399021        8.4445167223       -6.2736191933
 H        -5.9078039569        9.4907810233       -5.3028701201
 Na       -8.8819921903        6.9681329865       -1.3646891704
