117

 C        -5.8215192784        9.8878961588       -2.9745168931
 C        -7.1836263793        9.2325289715       -3.0672907077
 O        -7.8913135865        9.1414015865       -2.0577193663
 C        -7.5764190607        8.5123793311       -4.3850519150
 C        -7.3046609750        6.7933933088       -4.1799123046
 O        -8.3031047894        6.0750242740       -4.0640236485
 C        -5.8411739488        6.3717864242       -4.0927415103
 C        -5.5011596879        6.6184022961       -2.6118759132
 C        -4.3520024228        5.8160859332       -2.1129343995
 O        -3.5063045758        5.4127020164       -2.8915149582
 C        -4.1495689856        5.6190623996       -0.5590180595
 C        -5.2566872330        4.9492744767        0.1042934620
 O        -6.0042990561        4.1695787858       -0.4647617075
 C        -5.4621983745        5.2627854558        1.6848336778
 C        -6.9289727227        5.0293859039        2.2476330000
 C        -7.9385023680        5.1594308628        1.0844485715
 O        -8.0879524147        6.2658846415        0.5260179417
 C        -9.0183241904        4.0112167051        0.7092771325
 C        -8.6999797913        3.7076985028       -0.7323457375
 O        -8.8906620732        4.5244626796       -1.6406586880
 C        -8.5373069211        2.2781950614       -1.1407349967
 C        -9.9315889279        1.6085841794       -1.4118432526
 C        -9.6716288218        0.1329774370       -1.4268783260
 O        -8.6078168949       -0.4712104039       -1.4233278921
 C       -11.0911315327       -0.7366036604       -1.2872640022
 C       -11.3840217072       -1.5065370016        0.0366199587
 O       -12.5332022404       -1.6630851724        0.4591052927
 C       -10.0958594073       -2.0394556777        0.8876660889
 C       -10.5847874411       -2.7295496563        2.1723911650
 C       -11.5392147682       -1.7886340403        3.0134940215
 O       -11.0298223435       -0.6885406441        3.3085284396
 C       -12.8711977760       -2.1385151581        3.8016206398
 C       -13.7271546359       -0.7696931839        3.9801524673
 O       -14.1711093868       -0.5782307758        5.1188030512
 C       -14.0819414353        0.2294149524        2.8858557819
 C       -13.9073162813        1.6919715692        3.3335915117
 C       -14.4949799760        2.6122026401        2.3070612066
 O       -13.8174960159        2.9322690199        1.3818901548
 C       -15.8061421059        3.3731618743        2.6136792325
 C       -15.4647764206        4.7554664154        3.3568396992
 O       -14.8115103968        5.6494028771        2.8284771547
 C       -15.7409807628        4.9990378934        4.8960682082
 C       -16.3311603494        3.8524787204        1.2666200072
 C       -16.8883355310        2.4829422413        3.3182259757
 C       -13.6408515713       -3.2482182570        2.8343584951
 C       -12.6531649937       -2.9734965395        5.1215097313
 C       -12.3110120392        0.0571632669       -1.6697756361
 C       -10.8307164805       -1.9244777678       -2.2274077171
 C        -8.7426333466        2.7566623384        1.6338258734
 C       -10.4590510655        4.5884783861        0.8681615120
 C        -3.1918680242        4.2904497213       -0.5654401449
 C        -3.3512565444        6.8836871036        0.0011261768
 C        -9.1791650769        8.7544375487       -4.5067192444
 C        -6.9074824487        9.0198272505       -5.7574052967
 H        -5.7358805093       10.7547506634       -3.5939144530
 H        -5.0161653091        9.3253331773       -3.4343342200
 H        -5.3079463665       10.1441226434       -1.9877457001
 H        -5.0649898592        6.9244631985       -4.5950293554
 H        -5.7534724358        5.3408332330       -4.5349109975
 H        -6.3352820906        6.3541005243       -1.9074792030
 H        -5.3399993079        7.6853247997       -2.3644067099
 H        -5.2103204240        6.3028888165        1.7620172877
 H        -4.8570501290        4.8646256083        2.4857566744
 H        -7.1537637408        5.9486034256        2.8353987479
 H        -6.8992834043        4.1268090388        2.7911026433
 H        -8.0018426991        1.6530927404       -0.5957643290
 H        -8.0064393602        2.2261358598       -2.0286580663
 H       -10.3856467910        1.9173278760       -2.3476504280
 H       -10.5781214056        1.8173958972       -0.5473068778
 H        -9.5976511098       -1.0513318607        1.1013826469
 H        -9.3778321573       -2.4398036827        0.3339812402
 H        -9.7505277323       -2.8514486153        2.7905066366
 H       -10.8607820244       -3.7397620956        1.9695889276
 H       -15.0352290946        0.1065343990        2.4366453163
 H       -13.2818038773       -0.0045849107        2.1785696906
 H       -12.8499970163        1.7935260681        3.5175467319
 H       -14.3348095579        1.9445169990        4.2927457233
 H       -15.7546120657        5.9972580794        5.1272502545
 H       -14.7364967437        4.5942915421        5.2326470258
 H       -16.5725479015        4.5356684717        5.4404228162
 H       -15.5624282816        3.6072414003        0.4718388398
 H       -16.6669984875        4.9383893135        1.1735951981
 H       -17.0315413891        3.0839217488        1.0004555011
 H       -17.6104481474        3.1759607093        3.6216659489
 H       -16.7127912963        1.8829313786        4.1918359070
 H       -17.3880943397        1.8789706390        2.5532257467
 H       -13.7228155324       -2.9378906564        1.7643664807
 H       -14.6716613731       -3.5323945373        3.1049095894
 H       -13.1607333753       -4.2887129329        2.9381258104
 H       -12.0689518828       -2.3817559642        5.7256817811
 H       -12.2542251925       -4.0256110677        4.9787072060
 H       -13.5157608503       -3.1300443211        5.6554389547
 H       -12.9932080354       -0.6844235847       -2.1370541252
 H       -12.2131422917        0.8031973884       -2.4615731431
 H       -12.9203823851        0.4704104931       -0.9507358407
 H       -10.8067935391       -1.6960657249       -3.2576841265
 H       -11.6699917481       -2.6355634919       -2.2217661538
 H        -9.9654057839       -2.4320977300       -1.7974080998
 H        -9.6633132193        2.2110894943        1.7612107495
 H        -8.4825101080        3.0458258324        2.6635179690
 H        -7.9838535931        2.1875498857        1.1902816037
 H       -10.7422243188        5.4184089906        0.2688648286
 H       -10.5089312363        4.9091343887        1.9192375148
 H       -11.1934023052        3.7673782533        0.8478185496
 H        -3.6751941471        3.3437679813       -0.9480219833
 H        -2.7593814359        4.0743571299        0.3669819936
 H        -2.3047831079        4.4017524095       -1.1632212439
 H        -3.9305374498        7.7933484263        0.0916131480
 H        -2.5129653112        6.9892141874       -0.7233837016
 H        -2.8656591265        6.7492003083        1.0285861912
 H        -9.6615396223        7.7773754181       -4.2900834906
 H        -9.5755532516        9.1497781912       -5.4738325331
 H        -9.4685678916        9.4754094114       -3.6820105039
 H        -6.9290726929       10.1474891634       -5.6524095098
 H        -7.5240798008        8.8048812616       -6.6605621430
 H        -5.9231755404        8.4401144320       -5.9753862611
 Na       -8.6902957729        6.7898559678       -1.8622817059
