117

 C        -5.7506416900        9.8009868946       -3.1828640508
 C        -7.1035060683        9.0398991279       -3.1939976880
 O        -7.8136138703        9.0173844359       -2.1479814300
 C        -7.6585549576        8.3954401758       -4.4705103015
 C        -7.3886514740        6.8876204567       -4.3126481967
 O        -8.2227833357        5.9870357097       -4.1152364527
 C        -5.9234782377        6.5535030962       -4.0396263667
 C        -5.5508983468        6.5551729538       -2.5465224537
 C        -4.2893096979        5.7320366012       -2.2075452736
 O        -3.4742264738        5.4069095408       -3.0138837190
 C        -4.0816099472        5.4625529103       -0.7193865511
 C        -5.3986890015        4.9969055534        0.0230956217
 O        -6.0354820079        3.9751529286       -0.3727958181
 C        -5.4993714846        5.3341795458        1.6007641286
 C        -6.8616566432        5.1049544854        2.2355708073
 C        -8.0918762080        5.2228635301        1.2094343008
 O        -8.1469492123        6.2423517871        0.5151668238
 C        -9.0365253759        4.0308640248        0.8878121810
 C        -8.8053610198        3.6668482242       -0.7270957811
 O        -8.9831416045        4.5181092050       -1.5534507666
 C        -8.3723584155        2.2476613195       -1.3091134366
 C        -9.7726049615        1.6017236212       -1.4221849354
 C        -9.7106521259        0.0745744643       -1.2420850058
 O        -8.5942746611       -0.3460362559       -1.2607520419
 C       -11.0403181192       -0.7972788628       -1.2197738813
 C       -11.3845513244       -1.4186634400        0.2464056789
 O       -12.5309447975       -1.6701862528        0.4688985943
 C       -10.2763194825       -1.9807557038        1.2314953657
 C       -10.7121097106       -2.6911661168        2.4074425304
 C       -11.5403706466       -1.7359205022        3.2425857194
 O       -11.0928260054       -0.6515415356        3.4140442548
 C       -12.9461806401       -2.1383752781        3.7056656188
 C       -13.8616216846       -0.8925274725        3.9809343581
 O       -14.2011068957       -0.6683038594        5.0933596210
 C       -14.0770637315        0.2975867187        2.8600536466
 C       -13.8498295112        1.7238410135        3.5079924650
 C       -14.3597906301        2.8063088246        2.3850621476
 O       -13.7494588215        2.9005925194        1.3187644286
 C       -15.8409767151        3.5727477059        2.5090256786
 C       -15.3428839321        4.7589267173        3.3262517665
 O       -14.7340746127        5.5522328434        2.6219115977
 C       -15.6418388233        4.9471139993        4.8075437800
 C       -16.3589827637        3.9689822930        1.1264275593
 C       -16.7162409716        2.4982612812        3.2375311012
 C       -13.7660855784       -3.1719943780        2.7457094417
 C       -12.5636301107       -2.6796036832        5.0662283331
 C       -12.1548208133        0.0941693731       -1.7194440090
 C       -10.8026672586       -1.9578551500       -2.2200009810
 C        -8.7393394563        2.8285676019        1.8177729625
 C       -10.4846717084        4.5522835038        0.9985879099
 C        -3.1392547892        4.1813121122       -0.6285793384
 C        -3.5301288336        6.7076520803       -0.0165093934
 C        -9.0921890451        8.8690382227       -4.6754226801
 C        -6.9052744963        9.0216304072       -5.6910030869
 H        -5.6122258705       10.6194089948       -3.9133011137
 H        -4.7100538880        9.3329074524       -3.2115496791
 H        -5.6679910003       10.3179427635       -2.2109870138
 H        -5.0887296327        7.0714279554       -4.4938691877
 H        -5.8180140561        5.4996961876       -4.4508217272
 H        -6.3646277647        6.0822553722       -1.9164224992
 H        -5.4440911290        7.5200918817       -2.0515907517
 H        -5.0292099700        6.2585680875        1.9704190091
 H        -4.9283681281        4.4880766531        2.1127458604
 H        -7.0205385784        5.9423734909        2.9279452484
 H        -6.7653359100        4.1096924233        2.7540876895
 H        -7.7156151942        1.6548132008       -0.6880285237
 H        -7.8586615745        2.2545889230       -2.3195206800
 H       -10.0808606511        1.8522164773       -2.4604118214
 H       -10.3756611700        2.1162531473       -0.7057620624
 H        -9.5624958016       -1.2795474466        1.3894201991
 H        -9.7339467815       -2.6539434976        0.5615642364
 H        -9.8236573714       -3.0830673486        2.8037946389
 H       -11.2146017391       -3.6293860229        2.0948327712
 H       -15.1986942207        0.3857119706        2.7029230188
 H       -13.5706884499        0.1646555288        1.9163412101
 H       -12.7490438109        1.8502336672        3.8024683931
 H       -14.3992090910        1.7781105189        4.4022904437
 H       -16.0410708064        5.9307663068        4.9624101896
 H       -14.9353334346        4.6515087927        5.6277386725
 H       -16.6260608200        4.3890973061        4.8589337276
 H       -15.6796810457        3.8003171258        0.2249424251
 H       -16.5832230262        5.0767275146        1.2167980077
 H       -17.2262324306        3.2989578522        0.8820020315
 H       -17.6116392065        3.0453275963        3.5389151311
 H       -16.3803586987        2.1283561834        4.1429240656
 H       -17.0301670012        1.6686867608        2.5463244645
 H       -14.2062747841       -2.6511719235        1.7931212563
 H       -14.6133822887       -3.6022137822        3.2425786287
 H       -13.2218736237       -4.0305833868        2.4507641687
 H       -12.2491047990       -1.7687590580        5.5865750223
 H       -11.9003260295       -3.4769067063        5.0603624255
 H       -13.3816218139       -2.9825804937        5.6876300101
 H       -12.9762820631       -0.5036932411       -2.0556032764
 H       -11.9596922596        0.6675582444       -2.6042128431
 H       -12.6172015558        0.6972836547       -0.9427542464
 H       -10.3433464387       -1.5622580083       -3.1205016658
 H       -11.8367281369       -2.2951926299       -2.7044219034
 H       -10.3309240225       -2.7743415348       -1.8415169188
 H        -9.7452903130        2.4119478769        2.0093815756
 H        -8.4024077494        3.0356685961        2.7424468503
 H        -8.1022315654        2.0596656269        1.3445840996
 H       -10.7856655353        4.9798474195        0.0750075929
 H       -10.6956499373        5.3691634850        1.7755451186
 H       -11.1561863694        3.6983777521        1.2251731013
 H        -3.6908182481        3.2853359176       -0.8254467561
 H        -2.4752914992        4.0692402978        0.1555745010
 H        -2.4955223199        4.2524833011       -1.4097368413
 H        -4.3363854119        7.4849322396        0.1676190629
 H        -2.7757467055        7.1172174227       -0.5526995351
 H        -3.0615183936        6.4506022789        0.9482347455
 H        -9.6714446938        8.3469695427       -3.9092875672
 H        -9.5366754668        8.6058556981       -5.6333137445
 H        -9.0873616753        9.9541321682       -4.5606574812
 H        -6.5998879598       10.0863069944       -5.3032637688
 H        -7.4715655534        9.1914109346       -6.5972180987
 H        -6.0634561277        8.2993968380       -5.8982285945
 Na       -8.7493272000        6.7466953217       -1.8278848139
