117

 C        -9.8902994481        8.9275594888       -1.9332852062
 C        -8.7697145145        9.6060252699       -1.1059145458
 O        -8.8030346450        9.7384576323        0.0852397750
 C        -7.4931485684       10.3755817440       -1.9513982632
 C        -6.5674466422        9.2099831327       -2.2779745656
 O        -6.2101177875        8.8723548911       -3.3907345108
 C        -6.1703956070        8.4062679584       -1.0595990243
 C        -5.5023969173        7.0327585024       -1.3481533853
 C        -6.4228770520        5.9508323789       -1.7440414457
 O        -7.6163225162        6.0134302012       -1.9853283873
 C        -5.7889480469        4.4971986019       -1.5856433820
 C        -5.7425055054        4.1354472035       -0.0196980003
 O        -5.0244511331        4.7413118256        0.7645428139
 C        -6.6773055288        2.9569324863        0.5396480257
 C        -6.3992669187        2.5356326595        1.9295409253
 C        -7.3130999719        1.4014667896        2.2633636203
 O        -7.9159724541        0.8498308272        1.3680706865
 C        -7.3218506313        0.8080950349        3.6921216229
 C        -8.3533625905        1.5860582333        4.4564207716
 O        -8.0970273810        2.7220974475        4.8621131978
 C        -9.7281182041        0.8901804639        4.6556727120
 C       -10.8398585673        1.9258444488        4.7458355998
 C       -10.7719993076        2.8369536892        3.4986556880
 O        -9.9309964190        2.6653593021        2.6581201071
 C       -12.0060825562        3.7151394129        3.1169666579
 C       -12.7936277768        2.7943814652        2.1192785645
 O       -12.3836141226        1.7250212897        1.7026787862
 C       -14.1992435978        3.2903944866        1.6315362155
 C       -14.5579756660        2.6695189595        0.2681715520
 C       -14.5964289606        3.8320915130       -0.7752482036
 O       -14.4744779684        5.0375423093       -0.4512774451
 C       -14.9602517725        3.4093476852       -2.3214063599
 C       -13.8605287435        2.2934627049       -2.8686244481
 O       -13.9399358996        1.1402893159       -2.6897681257
 C       -12.5588412860        2.9084588774       -3.4011507656
 C       -11.4612538399        1.8374318913       -3.5495341209
 C       -11.1182063765        1.2421757826       -2.2940213000
 O       -11.3091841428        1.9140486212       -1.2443175035
 C       -10.5090234198       -0.1874303340       -2.2022640211
 C       -11.0123983329       -0.9152602879       -0.8290086284
 O       -10.5678812212       -0.6543024550        0.2433338907
 C       -12.0422447666       -2.0664196391       -0.9789818090
 C       -10.7398170501       -1.0885834555       -3.4490729352
 C        -9.0320425686        0.1392673019       -1.9816091796
 C       -16.3087235150        2.6638119692       -2.3282577937
 C       -15.0600388089        4.6928136847       -3.1384049954
 C       -12.7510578273        4.0985445194        4.3809296877
 C       -11.6354550862        4.9968530548        2.3180053561
 C        -7.5500331224       -0.7323816700        3.5923635024
 C        -5.9309422452        1.2179212192        4.3866517158
 C        -6.7325096388        3.4943509240       -2.3835724111
 C        -4.3342211331        4.3934616284       -2.1499247938
 C        -7.9410072493       11.1958229568       -3.2497798741
 C        -6.8135371166       11.3273598297       -0.9453126976
 H       -10.6640229826        9.6488800926       -1.6304301661
 H        -9.9048248781        7.9314174167       -1.5527015909
 H        -9.8334020011        8.9002279392       -2.9927258484
 H        -7.0090232685        8.1282510468       -0.3435136516
 H        -5.3096577860        8.9200892440       -0.4803689772
 H        -4.9353185127        6.6269868951       -0.4854613428
 H        -4.7165884123        7.1374818156       -2.1117293494
 H        -6.6846750818        2.0285434664       -0.0919207963
 H        -7.7174137178        3.3970944776        0.6150860577
 H        -6.5592601617        3.2394919216        2.6976207151
 H        -5.3528906184        2.3356838671        2.1023283303
 H        -9.5145996676        0.4600674336        5.6499567867
 H        -9.9427406329        0.1119022579        3.8826950950
 H       -10.7101503125        2.6831442972        5.5670700830
 H       -11.8443733921        1.5306189031        4.8655738198
 H       -14.3485593590        4.3771638251        1.5449779559
 H       -14.8715186986        3.0217292006        2.4184962399
 H       -15.5062182958        2.0938926866        0.1224759164
 H       -13.6833034416        2.0873523662       -0.1066998683
 H       -12.3388047895        3.6495730199       -2.6221767076
 H       -12.6668312290        3.4049947818       -4.3621655820
 H       -10.4999091724        2.3901927712       -3.9529188932
 H       -11.8317331869        1.1894872871       -4.3766473508
 H       -12.1978064779       -2.7316264108       -0.1218166063
 H       -11.6064520289       -2.7676888985       -1.7532269183
 H       -13.0563152101       -1.6453173560       -1.2289140363
 H       -10.2619229942       -0.5264596052       -4.3025194323
 H       -11.7448724231       -0.9676700212       -3.8220393170
 H       -10.2192999957       -2.0259029663       -3.5617167387
 H        -8.7177622531        0.8801797356       -1.3533998930
 H        -8.6502624516        0.4403696651       -3.0510837753
 H        -8.4381214279       -0.7571252504       -1.8342270073
 H       -16.1604810175        1.7660239439       -1.8157511270
 H       -16.8073547091        2.5296885575       -3.2406866267
 H       -17.0076321808        3.2556733745       -1.7142592226
 H       -14.2220706777        4.7165142121       -3.7891435936
 H       -14.9183098701        5.5354997642       -2.4673928534
 H       -15.9862778851        4.7827310741       -3.6721178842
 H       -12.1037403996        4.5682254257        5.1395931179
 H       -13.0242418150        3.1585619865        4.8623206263
 H       -13.5383047310        4.8098292967        4.3039645944
 H       -11.4317650314        5.7853723797        3.0605648632
 H       -12.3917718472        5.4409108413        1.6390716954
 H       -10.7288892715        4.7953969800        1.6495059949
 H        -7.7190762371       -1.2356806070        4.5476390530
 H        -6.7373702230       -1.1898240256        2.9398564891
 H        -8.3452872009       -0.9217233946        2.9445847562
 H        -5.1363078171        1.4331287995        3.6233891800
 H        -5.5894644680        0.4729301184        5.1205950707
 H        -6.0591450497        2.0878124866        5.0564453718
 H        -7.7782807067        3.5290559551       -2.1630691966
 H        -6.3721563349        2.4395962209       -2.1966985787
 H        -6.6925061927        3.6311267389       -3.4356981998
 H        -4.3513001055        4.4296394523       -3.2139604835
 H        -3.9683195734        3.3852073958       -1.9663988910
 H        -3.6752774174        5.1029840850       -1.7222982867
 H        -7.0974638312       11.2463076686       -3.9640696686
 H        -8.1784624365       12.1258582665       -2.6786012528
 H        -8.7814060659       10.6729544428       -3.7130150292
 H        -6.4946463782       10.8757285492       -0.0016174152
 H        -7.6250679578       12.0015147739       -0.6759126937
 H        -6.0116514594       11.8807660808       -1.4417766840
 Na      -10.1933626254        1.4580237153        0.7778802671
