117

 C        -6.1656873032       10.4262781770       -3.3972246308
 C        -7.0646901078        9.1451330708       -3.4480439656
 O        -7.2528720578        8.6187664253       -2.3377057393
 C        -7.4403325943        8.3676828291       -4.8001288731
 C        -7.3751868545        6.7110323861       -4.3045247083
 O        -8.3951859013        6.1773061985       -4.0183975647
 C        -5.9791100306        6.1886727557       -4.0643328700
 C        -5.9026916465        5.2510867027       -2.8670414055
 C        -4.3788649849        5.1785526412       -2.3669862151
 O        -3.5478684724        5.0699642609       -3.2234266218
 C        -3.9875075607        5.1803433005       -0.7905754321
 C        -5.2155904196        4.8516674044        0.1333039696
 O        -6.0792296511        4.0096181775       -0.2837068832
 C        -5.6063035203        5.6691054203        1.3572952872
 C        -6.7476271567        5.0159369374        2.0314822053
 C        -8.0657875244        5.2918987817        1.1316059106
 O        -8.2553351117        6.3808102327        0.5728041842
 C        -9.0255234429        4.1438612727        0.9087666767
 C        -8.8883225677        3.6646728255       -0.6158409730
 O        -9.2113378146        4.4299166855       -1.4826245395
 C        -8.3520068956        2.2225315852       -0.8769612243
 C        -9.7133320632        1.4210119365       -1.2587728098
 C        -9.6445595375       -0.0502632516       -0.9508978951
 O        -8.6242110217       -0.4929263041       -0.4609723581
 C       -10.8081136478       -0.9681401131       -1.0635524180
 C       -11.2784610746       -1.4788464179        0.3710772874
 O       -12.3995546414       -1.2070283491        0.7322193216
 C       -10.3362676177       -1.8997708747        1.5782757333
 C       -10.9642094408       -2.3998386420        2.8440803213
 C       -11.8400442790       -1.3925578310        3.4557994702
 O       -11.4738832315       -0.2631044233        3.4589979363
 C       -13.1643916447       -1.8225366887        4.0339933929
 C       -14.1069701495       -0.5473622004        4.2025824636
 O       -14.7476304807       -0.4403079194        5.1847984316
 C       -14.3253584489        0.3875443934        2.9516940051
 C       -13.6373751741        1.6871638769        3.3108011852
 C       -14.1615535092        2.7272899124        2.1596554984
 O       -13.3967331997        2.8823268183        1.2236017825
 C       -15.4354017777        3.5834454063        2.2441146831
 C       -14.9917550736        4.9407905552        2.9779128919
 O       -14.2731325149        5.7356086763        2.4509466983
 C       -15.4374347588        5.0023035337        4.4298449436
 C       -15.8296960329        3.9885343829        0.7154487188
 C       -16.6820883780        2.7467308391        3.0008345602
 C       -13.9067479568       -2.7481564324        3.0275925670
 C       -12.9560489473       -2.6411433069        5.3124679154
 C       -11.9788009222       -0.2282602877       -1.9041463507
 C       -10.5805383736       -2.1372106058       -1.9607265898
 C        -9.0685872710        2.9918114155        1.9051196563
 C       -10.4779627826        4.7188110232        1.1263746311
 C        -3.3357571795        3.7251136057       -0.7403161601
 C        -3.1695289781        6.4426248346       -0.4826070466
 C        -8.9998719347        8.7925811806       -4.8873733464
 C        -6.5642190915        8.9260416716       -6.0390833159
 H        -6.8199074582       11.3273343936       -3.4236346907
 H        -5.4394806097       10.5422984514       -4.2381839059
 H        -5.4768025127       10.3044483704       -2.6020930600
 H        -5.3598971840        7.0795872243       -3.8679054517
 H        -5.6133359070        5.6886380773       -4.9914185675
 H        -6.1562695467        4.1974636104       -3.1820275143
 H        -6.5706197738        5.5049455390       -2.0304457888
 H        -6.0494860785        6.5975899168        0.9647293964
 H        -4.7583502646        5.8203405299        2.0192140251
 H        -6.9173893180        5.4859977453        2.9962879362
 H        -6.5880139193        3.9165762182        2.2927260011
 H        -8.0630260360        1.5694237516        0.0347711774
 H        -7.6906684682        2.2905275017       -1.6747257703
 H       -10.0154322839        1.7781723980       -2.2537579311
 H       -10.5007663076        1.8380047970       -0.6119027905
 H        -9.9539049908       -0.9999830367        1.6939944858
 H        -9.4491010694       -2.4612546460        1.3241366965
 H       -10.1966563101       -2.6849647711        3.5182573722
 H       -11.4603091337       -3.3304999195        2.6247721048
 H       -15.3688958952        0.5268330295        2.6240038106
 H       -13.7486084593        0.0939119317        2.1494069737
 H       -12.5714770682        1.4693727604        3.1348395213
 H       -13.9570753428        1.9517850149        4.2622803040
 H       -14.8769636508        5.8038431092        5.0827032720
 H       -15.7647928658        4.1512813346        4.9497326637
 H       -16.2900111432        5.5922785377        4.1534962809
 H       -15.2583235285        4.8689396369        0.3901521532
 H       -16.8673186773        4.1078611585        0.3549883888
 H       -15.3602928885        3.0823529131        0.1610567329
 H       -17.5091980755        3.3833664927        3.2525970237
 H       -16.3018660410        2.2932909321        3.8590221142
 H       -16.9648773688        1.9151013534        2.3724425051
 H       -13.8878756109       -2.6891122209        1.9439769210
 H       -15.0005378988       -2.8150920004        3.3915876885
 H       -13.4183774426       -3.7446127861        3.1121471299
 H       -12.2611567647       -2.2561947288        6.0696116093
 H       -12.6905359023       -3.5765589718        5.0812334817
 H       -13.8908484215       -2.5777427846        5.8800759410
 H       -12.8163975530       -0.8572558113       -2.0723006905
 H       -11.6796365538       -0.0554322732       -2.9180582504
 H       -12.3723766772        0.6678802810       -1.3671800794
 H       -10.5486595397       -1.7519701889       -2.9975927903
 H       -11.2121501385       -2.9370168414       -1.7849646583
 H        -9.5665095490       -2.5139549383       -1.8623455012
 H        -9.9899017354        2.4543972842        1.8337518004
 H        -8.8974382343        3.4708577220        2.8663738755
 H        -8.2960220527        2.2296543933        1.8140298056
 H       -10.4821902078        5.7992668112        1.1000498404
 H       -10.6649639679        4.5783040772        2.1854076637
 H       -11.2518330454        4.3735004103        0.5017196141
 H        -4.0422325281        3.0432390693       -0.9699948481
 H        -2.9345608210        3.3928619588        0.2411198704
 H        -2.4434932611        3.5932264597       -1.3246065737
 H        -3.9643217099        7.2708317626       -0.5869990894
 H        -2.3243874464        6.7430018326       -1.0994222526
 H        -2.8657742592        6.3877293996        0.5417761038
 H        -9.2252489923        9.1707112623       -5.8996826308
 H        -9.4184998292        9.6297526043       -4.3099081640
 H        -9.4106426751        7.7927814876       -4.6463873117
 H        -7.2922690043        9.4157488824       -6.7554893001
 H        -6.1914591769        8.0097934391       -6.6400282097
 H        -5.9257642488        9.8132680313       -5.8699094547
 Na       -9.1189567645        6.8798195747       -1.5808636283
