117

 C        -6.4445907670       10.4866078358       -3.5303095199
 C        -6.9174650606        9.0946548500       -3.3671251805
 O        -7.3648338439        8.6325986638       -2.3469727395
 C        -7.4143360902        8.3130669638       -4.6499012389
 C        -7.4005962237        6.8572558566       -4.2715062584
 O        -8.3825615919        6.2439439860       -3.9406265613
 C        -6.0000633195        6.1588076622       -4.1375406000
 C        -5.8736254655        5.0597523209       -3.0580223624
 C        -4.4405226057        5.0202562008       -2.5724744303
 O        -3.5040751660        4.9986566215       -3.3574014682
 C        -4.1304073260        5.1058637197       -0.9130778498
 C        -5.3097868527        5.0228189388       -0.0432066883
 O        -5.9798406915        4.0346720108       -0.1639290897
 C        -5.5721532305        5.8079555935        1.3484432661
 C        -6.8596875625        5.1191192158        1.9831310396
 C        -8.0451423406        5.2315629550        1.0807963666
 O        -8.1557214207        6.3609283394        0.6072438903
 C        -9.1276287419        4.1350624474        1.0013066864
 C        -8.8896509739        3.6914405298       -0.5644386833
 O        -9.1508928455        4.5100175298       -1.4421952108
 C        -8.5743598989        2.2897329262       -0.9315502024
 C        -9.7923915800        1.4275406622       -1.1694798348
 C        -9.5989562738       -0.0564369383       -0.8437126499
 O        -8.5137232524       -0.4512125957       -0.4128615351
 C       -10.7830980913       -1.0946048357       -1.0304628576
 C       -11.3969136225       -1.2400086237        0.4970576497
 O       -12.5877555422       -1.1679182959        0.7699475369
 C       -10.2725871720       -1.8908756247        1.5206372062
 C       -10.9510440571       -2.4448286862        2.8252833484
 C       -11.9442564467       -1.3646659836        3.4199871178
 O       -11.5561252354       -0.1858000400        3.4986347490
 C       -13.3236519680       -1.8825417408        4.0375038671
 C       -14.2208260198       -0.6408462804        4.1794928112
 O       -14.7324392546       -0.3907307162        5.3071996721
 C       -14.3189112161        0.4355080889        3.0830802242
 C       -13.6707721666        1.8492744604        3.2978397008
 C       -14.0273396188        2.7411735804        2.1408477776
 O       -13.2695336856        2.8595093115        1.1806911426
 C       -15.2714547836        3.5497001575        2.1541809518
 C       -14.9566784291        4.8832724390        2.8917205262
 O       -14.2176512663        5.6751201138        2.3381414098
 C       -15.4088323780        5.1146444595        4.3693631618
 C       -15.7563059987        4.0761144482        0.7672865222
 C       -16.5517143277        2.9106136246        2.7752181879
 C       -13.9500077264       -2.8436267970        2.9479657836
 C       -13.1225768333       -2.3738359262        5.4431250715
 C       -12.0016239296       -0.3115979165       -1.7624274038
 C       -10.3145391346       -2.4108125956       -1.7676070467
 C        -9.0380002219        3.0510583272        2.0212200149
 C       -10.5051310112        4.8621544777        0.9460098810
 C        -3.3817876737        3.6369490434       -0.6919921392
 C        -3.1392146181        6.2329663407       -0.5020482656
 C        -8.9149012341        8.7956251874       -4.8464786784
 C        -6.5110398870        8.5538963047       -5.8185324097
 H        -7.4456634995       11.0017846897       -3.6055318013
 H        -5.9256132009       10.7269387988       -4.4597323428
 H        -5.6493299897       10.7904213071       -2.8088523019
 H        -5.1338681518        6.9054299694       -4.0252560544
 H        -5.9811544523        5.7108420908       -5.1212349528
 H        -5.9670774596        4.0293672935       -3.3943785010
 H        -6.6112980478        5.2067428485       -2.2364690564
 H        -5.6657078539        6.9329983667        1.0778736184
 H        -4.7367260638        5.5027709721        2.0237046722
 H        -7.1574289625        5.3807332150        3.0223098206
 H        -6.5916867171        4.0329174542        2.0790669978
 H        -8.1926079401        1.6539550107       -0.0532808399
 H        -7.8944623240        2.3473000908       -1.8954935468
 H       -10.0081228866        1.5075979028       -2.2392166392
 H       -10.6556294178        1.9277065936       -0.7499059431
 H        -9.5950977818       -1.0138729234        1.6396417313
 H        -9.6065920497       -2.5271409358        0.9315953269
 H       -10.2305683129       -2.7701402701        3.6454554627
 H       -11.4883304308       -3.3143241603        2.5450262894
 H       -15.3959692521        0.6337680397        3.0041096235
 H       -13.9303729265        0.1685406565        2.0586136343
 H       -12.6282021658        1.7177814830        3.3201085386
 H       -14.2536670584        2.2720671297        4.1722893316
 H       -14.7055900387        5.7157007392        4.9918090787
 H       -15.7491102428        4.1739935273        4.8623238366
 H       -16.2898634635        5.7953088047        4.2892901003
 H       -15.4380811287        5.1480666140        0.6056628806
 H       -16.8816122812        4.0183677752        0.5628110482
 H       -15.2745204935        3.4142017741       -0.0486088180
 H       -17.3295187464        3.6170221613        3.0247961070
 H       -16.2560996719        2.2667981644        3.6260858693
 H       -16.8740139515        2.2559737585        2.0536058223
 H       -13.6694303091       -2.7956915671        1.9697528307
 H       -15.0464111007       -2.7194011741        3.0209270047
 H       -13.6537929647       -3.8989978068        3.1003437544
 H       -12.4238243550       -1.7564731983        5.9279647149
 H       -12.6151286166       -3.3458509499        5.5240359788
 H       -13.9803498230       -2.2233575864        6.0634013676
 H       -12.5837608928       -1.0250293478       -2.2743026185
 H       -11.7453662096        0.3975049768       -2.5353771157
 H       -12.6541165182        0.0998028950       -1.0048864018
 H       -10.1806880966       -2.2983545786       -2.8281168157
 H       -10.8188305361       -3.2402890649       -1.4322718664
 H        -9.2300801872       -2.6053916980       -1.4601467243
 H        -9.9183197253        2.4829598582        2.1438573644
 H        -8.6242906430        3.5959590260        2.9648671409
 H        -8.3197711291        2.3095800928        1.8349598083
 H       -10.4122436831        5.9600330797        0.6014915106
 H       -10.9522424815        4.9413548447        1.8910020893
 H       -11.1356774806        4.4099459763        0.1925547122
 H        -3.9721733238        2.7657061537       -0.7596815287
 H        -2.9717511734        3.5854187872        0.2604576532
 H        -2.5107455088        3.5759833909       -1.2834932737
 H        -3.7903824457        7.0698771526       -0.3552502254
 H        -2.3510476604        6.6535730337       -1.2327882137
 H        -2.7317893377        5.9717872919        0.4347694570
 H        -9.2036314808        8.3198597462       -5.8031696211
 H        -9.1091250970        9.8031303509       -5.1117232145
 H        -9.4319859693        8.3596206264       -3.9771056514
 H        -7.0740769850        8.8730017466       -6.6555855860
 H        -6.0053111345        7.5860255099       -6.1703049689
 H        -5.9501931765        9.4592024635       -5.7392075785
 Na       -9.0203177304        6.7981254665       -1.6403948493
