117

 C        -7.4575466630       10.5351312315       -3.6071628961
 C        -7.2470425181        8.9405318045       -3.3340843049
 O        -7.2437188186        8.5511303242       -2.1718648349
 C        -7.3912494010        8.1185828459       -4.6782878646
 C        -7.3003483480        6.6041333545       -4.3064992047
 O        -8.3088548136        6.0609282207       -3.8349663895
 C        -6.0013112115        5.6852297304       -4.5353394144
 C        -5.9168726315        4.7951861618       -3.3080924192
 C        -4.5704847229        4.7119007232       -2.7150750472
 O        -3.6620749942        4.7155496388       -3.4956970265
 C        -4.2151844786        4.6115773640       -1.1811199974
 C        -5.5939003508        4.5220059557       -0.1624628709
 O        -6.4246586538        3.6669068123       -0.2680609131
 C        -5.3845060886        5.4370238422        1.1673264727
 C        -6.6860024285        5.4112916548        1.8683405500
 C        -8.0019423267        5.7362811689        0.9958487266
 O        -8.0744985965        6.8898448612        0.6455777047
 C        -9.1341619491        4.5984746142        0.8476932404
 C        -9.2034115976        3.8440815469       -0.4679622194
 O        -9.0463350450        4.5073347073       -1.4880370028
 C        -9.1210358192        2.3133110466       -0.5863817065
 C       -10.2192908214        1.2525683151       -0.5074151483
 C        -9.6039197501       -0.1513825597       -0.5951580112
 O        -8.4589701915       -0.3329463622       -0.2738785284
 C       -10.5889195807       -1.3680103374       -0.6852547841
 C       -11.2659374544       -1.4693845578        0.7397537754
 O       -12.4321958629       -1.2064697087        0.7455662133
 C       -10.4804022914       -1.9736644153        1.9422283758
 C       -11.2656346683       -2.4686265957        3.1041569996
 C       -12.0957044253       -1.3634859483        3.7805316429
 O       -11.6550090957       -0.2525105463        3.9033960871
 C       -13.6397026278       -1.6803933308        4.3353733579
 C       -14.3591625876       -0.2356406299        4.3966800963
 O       -14.9317814960        0.1425898047        5.3621714860
 C       -14.4675849361        0.5050461411        3.0845255852
 C       -14.0845181051        2.0761361627        3.2173333131
 C       -13.8868277720        2.8695107164        1.9652178447
 O       -12.9331808473        2.6234015964        1.2788305169
 C       -14.9545196998        3.9599857833        1.5656205880
 C       -14.4373219687        5.0732031716        2.5899410233
 O       -13.7024425880        5.8986081621        2.1225066096
 C       -15.0518855509        5.4265249601        3.9433703346
 C       -14.8235008305        4.5136878253        0.0997698319
 C       -16.4628883068        3.6856875189        1.9354601461
 C       -14.4569564138       -2.7540268495        3.4887085022
 C       -13.5457841598       -2.0048450636        5.8329026186
 C       -11.7710238898       -1.2050817420       -1.6659175579
 C        -9.6058782906       -2.5721621074       -0.9546404732
 C        -9.1822683597        3.6890409303        2.1655238792
 C       -10.4463857753        5.4502121484        0.7903134456
 C        -3.4157481849        3.2159327552       -0.8943485453
 C        -3.1275238858        5.6364153911       -0.8043902003
 C        -8.7236822311        8.3286048095       -5.4528675905
 C        -6.1961548337        8.5435077919       -5.5947505524
 H        -8.3150240285       10.5156634867       -4.2814849364
 H        -6.5329561498       11.0598672783       -3.9959159568
 H        -7.5840190443       11.0165444537       -2.5998114774
 H        -5.1873686475        6.4105440975       -4.5449895197
 H        -6.1269232246        5.0425149954       -5.4398429143
 H        -6.1958717686        3.8202888877       -3.7265732969
 H        -6.6867781824        5.0595444673       -2.6034615722
 H        -5.2055809971        6.4975548092        0.8068197591
 H        -4.7539364664        4.7471036731        1.8033138016
 H        -6.5932941186        6.1576288160        2.7189583387
 H        -6.7458227522        4.5333972515        2.4842216327
 H        -8.3049667536        2.0617911434        0.2112713902
 H        -8.7047936821        2.0558084431       -1.5781107253
 H       -11.0960532278        1.5492377807       -1.0624887314
 H       -10.6584815129        1.3141201338        0.5252987568
 H        -9.5640254429       -1.2819647085        2.2269686864
 H       -10.1588082648       -2.9006519753        1.3950067879
 H       -10.4899687747       -2.7995469719        3.8080885578
 H       -11.9703585285       -3.2846265468        2.7004616317
 H       -15.5176920111        0.5335143292        2.7364675228
 H       -13.8560371422        0.0283883566        2.2720716986
 H       -13.1160376740        2.1584871034        3.7779553763
 H       -14.9305380051        2.3021716730        3.8929639769
 H       -14.8552531972        6.5129011737        4.2026001591
 H       -14.3811325927        4.7321206458        4.4722970654
 H       -16.0976622838        5.1286718958        4.2205089687
 H       -13.7433569029        4.4372760222       -0.2685029224
 H       -15.0987659409        5.6320247450        0.0064533045
 H       -15.6330369716        4.0468913174       -0.5020304546
 H       -17.0233063687        4.5856333149        2.0462295472
 H       -16.5248634175        3.0994121715        2.8007707140
 H       -16.8361819806        3.0555470503        1.1036166994
 H       -14.9797808239       -2.1739991277        2.6331734788
 H       -15.1875297793       -3.2199657378        4.0995528462
 H       -13.9097566290       -3.5636020271        3.0729306350
 H       -12.9212752722       -1.2611949329        6.2959121219
 H       -12.9122954405       -2.8652187349        6.0121491447
 H       -14.5138303688       -2.1327627921        6.2444810385
 H       -12.6308988531       -1.8013200625       -1.3471721735
 H       -11.4053505033       -1.4364307837       -2.6464900410
 H       -11.9890265217       -0.1940221114       -1.6709104728
 H        -9.1823581604       -2.3549285081       -1.9756701475
 H       -10.0486164881       -3.5973014655       -1.0868178196
 H        -8.7741564020       -2.6233366575       -0.2806332625
 H       -10.0914862609        3.2426004367        2.6408768726
 H        -8.7181801520        4.2309820525        2.9081718579
 H        -8.5000591034        2.7900615509        2.0897268600
 H       -10.3805364722        6.1227735190       -0.0005987287
 H       -10.5584660923        5.9945860250        1.7679093165
 H       -11.3802855686        4.8721068394        0.6615995534
 H        -3.9029541588        2.2961750210       -0.9161618438
 H        -3.0431172262        3.2689471562        0.0983534444
 H        -2.6605018024        3.1197107168       -1.6091667219
 H        -3.4311882659        6.6779980728       -0.6414768225
 H        -2.5021966020        5.6573290747       -1.6192697248
 H        -2.5679177273        5.2233563672        0.1064858783
 H        -8.8616688874        9.3684011561       -5.8267390381
 H        -9.6244458881        8.0433930210       -4.8276782511
 H        -8.6315754399        7.6336169392       -6.2915679330
 H        -5.5212835970        7.7126988804       -5.8702675633
 H        -5.6215098934        9.3531843532       -5.1106824228
 H        -6.5746998737        8.9127265668       -6.5269627169
 Na       -8.6996616937        6.7761324232       -1.7407080805
