117

 C        -7.7420102002       10.4425780398       -3.5702046725
 C        -7.2474868694        9.0233170489       -3.5748131854
 O        -7.3726582043        8.3685368415       -2.5441011714
 C        -7.2974778767        8.0971777600       -4.9336622959
 C        -7.3482757071        6.5684571908       -4.4631692227
 O        -8.3710616947        6.1786102249       -3.9632624738
 C        -5.9322495220        5.7623186206       -4.3153519337
 C        -5.9011564743        4.6601174727       -3.1676813483
 C        -4.4254067280        4.5483260838       -2.6810122617
 O        -3.5554329196        4.5540931585       -3.5271936539
 C        -4.0645820585        4.3583051519       -1.1698121287
 C        -5.3631002716        4.4395183926       -0.2112490367
 O        -6.3104995972        3.6698773145       -0.3481257353
 C        -5.4225453025        5.5669397658        0.9844438867
 C        -6.7621019751        5.1872581635        1.8978258311
 C        -8.0135338858        5.4608287093        1.0804186285
 O        -7.9303756833        6.5495108867        0.4511231207
 C        -9.4067536131        4.6525902188        1.0005505608
 C        -9.2047481407        3.8655475127       -0.2568588686
 O        -9.3301588437        4.4910271964       -1.3080640253
 C        -8.8236738520        2.4468482024       -0.4815931826
 C       -10.0184813515        1.4728805297       -0.1173220804
 C        -9.5476426936       -0.0381106410       -0.1857605406
 O        -8.3492894606       -0.1891217148       -0.2798198681
 C       -10.5154530931       -1.4864164171       -0.4328728661
 C       -11.3216230790       -1.6577450430        0.9295046375
 O       -12.4841940575       -1.3938978378        1.0282104190
 C       -10.5082392132       -2.1365869161        2.1574295232
 C       -11.4991579608       -2.5145424142        3.3090925212
 C       -12.3064332098       -1.3587450571        3.9220360066
 O       -11.7311786762       -0.2685329104        4.0458122259
 C       -13.7223968953       -1.5054230922        4.4637316871
 C       -14.4251531325       -0.0048869999        4.3942294273
 O       -15.0197375062        0.4195324645        5.3607651767
 C       -14.4573300069        0.6844002030        2.9968070510
 C       -14.2187709928        2.2290445020        3.1836061342
 C       -13.9861471746        2.9588712340        1.9435341461
 O       -13.0287710531        2.5693221973        1.2626159987
 C       -14.7503261616        4.1897164597        1.4052811880
 C       -14.2751907566        5.3849558713        2.3580014388
 O       -13.3220104004        6.1223813056        2.0738548843
 C       -14.7775759713        5.4297674013        3.7586694606
 C       -14.3776761532        4.5411498836       -0.0189800755
 C       -16.2634086847        3.7638471993        1.5313726439
 C       -14.4953358242       -2.6129228438        3.6074375992
 C       -13.5629567221       -2.0024602350        5.9614519639
 C       -11.3954479700       -1.1393769828       -1.7794088428
 C        -9.6625810753       -2.6123613348       -0.8485721889
 C        -9.5645305102        3.7980356080        2.1882639045
 C       -10.7211280384        5.6267718536        0.9260850873
 C        -3.7583610577        2.8314812245       -1.2168393698
 C        -3.0988527611        5.5625492161       -0.9204578925
 C        -8.7180112340        8.4780950699       -5.7667447589
 C        -5.9288122815        8.4350941877       -5.7732377042
 H        -8.3517311821       10.5068860597       -4.4704830868
 H        -6.9618268666       11.1347064463       -3.3934038755
 H        -8.3889859595       10.4206078975       -2.6598129623
 H        -5.0405675065        6.4504455366       -4.2738672985
 H        -6.0717724247        5.4190849911       -5.3189780749
 H        -6.0286101915        3.6952840636       -3.6473207133
 H        -6.7129871827        4.7806996161       -2.4127291148
 H        -5.7293879769        6.3913699035        0.4371389687
 H        -4.5350856244        5.4314254142        1.4890396719
 H        -6.8697073656        5.5219370988        2.8988799320
 H        -6.7707184722        4.1098430504        2.1216399844
 H        -8.0648512462        2.2204027482        0.1173478485
 H        -8.5146552656        2.1619943549       -1.5105392022
 H       -10.9359928789        1.5033155202       -0.7548359954
 H       -10.4747221335        1.6113395708        0.8543801356
 H        -9.9364114098       -1.2788444988        2.3782741212
 H        -9.8979183734       -2.9890957172        1.8361968059
 H       -10.9357947843       -2.8464486892        4.2234086316
 H       -12.1375249885       -3.1872551647        2.8702482709
 H       -15.5075268646        0.4990304258        2.7324480139
 H       -13.8433394325        0.3338049011        2.1783054090
 H       -13.2467921780        2.1917930252        3.6998907348
 H       -14.9606822390        2.6002659740        3.9467832624
 H       -15.0953612813        6.3846680771        3.6928771307
 H       -14.2656378583        5.0531450360        4.6645726338
 H       -15.7335877162        4.9134921340        3.7208540466
 H       -13.3608324779        4.1692280293       -0.1143475700
 H       -14.4280012250        5.5542466525       -0.2948063617
 H       -15.0288689857        4.0118036470       -0.6970038131
 H       -16.9333815935        4.6614630022        1.3893469153
 H       -16.5193601633        3.3593219467        2.6040930986
 H       -16.3921901733        2.9401927933        0.8554033405
 H       -14.3143098896       -2.6531693362        2.5322068671
 H       -15.5398786346       -2.6394785683        3.7609767566
 H       -14.2933812504       -3.4646011813        4.2457647657
 H       -12.6741030093       -1.6035031329        6.5124333507
 H       -13.5820450914       -3.1712245488        6.0502539823
 H       -14.5506606255       -1.7409794370        6.4089078947
 H       -11.6858411130       -2.1391759500       -2.0894282152
 H       -10.5958206257       -0.6982056084       -2.4297891000
 H       -12.2446723835       -0.3956775249       -1.7325125270
 H        -9.2651802054       -2.5729556734       -1.8002381629
 H       -10.2741985474       -3.5928384021       -0.9795221625
 H        -8.9096114050       -2.7279896759       -0.0567969945
 H       -10.4413969800        3.1796400194        2.1933767460
 H        -9.7961872537        4.3246187773        3.2067974063
 H        -8.7107946320        3.1538560711        2.3031074840
 H       -10.3663017251        6.4720310939        0.2117798043
 H       -10.9705824875        5.9849507389        1.8861849755
 H       -11.6532051351        5.2048990099        0.5661532750
 H        -4.6052968534        2.0997810459       -1.6404343698
 H        -3.5725840921        2.4592298599       -0.1884404474
 H        -2.9599262489        2.5915708128       -1.9942507726
 H        -3.7247521045        6.4418480664       -1.0100940248
 H        -2.1613327291        5.6178715513       -1.6134210681
 H        -2.7211852217        5.5578113092        0.0698410513
 H        -8.6073478508        9.1720885598       -6.5875129014
 H        -9.3715793111        8.8411283373       -5.0186010702
 H        -9.2984926600        7.5787161234       -5.9451926607
 H        -5.2374250095        7.7297504000       -5.3503755141
 H        -5.6623970261        9.4576674886       -5.6464901114
 H        -6.0601591991        8.3745758784       -6.8990567177
 Na       -8.9475160447        6.6458155085       -1.6223604759
