117

 C        -7.7226421336       10.4079077118       -3.7196402443
 C        -7.5683633782        8.8475692738       -3.6908264703
 O        -7.4078339159        8.2088798510       -2.6661370425
 C        -7.2428355215        8.0565234635       -4.9493899433
 C        -7.2849740567        6.6126335827       -4.4912927749
 O        -8.4050909221        6.2892368528       -4.0409713520
 C        -5.9786465431        5.8364717411       -4.2428997344
 C        -6.0749360666        4.6946739225       -3.2078534109
 C        -4.5597485908        4.5745015177       -2.7415028156
 O        -3.6538266034        4.4937654956       -3.4998874440
 C        -4.1858840009        4.3352029880       -1.1272150260
 C        -5.4362630086        4.4819942687       -0.2763599222
 O        -6.2937162327        3.6613606700       -0.4534444049
 C        -5.5309813785        5.4146150525        0.8277170321
 C        -6.7347552297        4.9384962912        1.6029696578
 C        -8.0633839275        5.3800996289        0.9885788128
 O        -7.9654590537        6.3506970884        0.2320945180
 C        -9.4467979075        4.6111883171        1.1297138884
 C        -9.3697699163        3.8606983633       -0.2824114130
 O        -9.5101600620        4.4820946752       -1.3368216035
 C        -8.9416903964        2.4001529591       -0.1180312735
 C        -9.9441458565        1.3257163561        0.0227049231
 C        -9.4450777898       -0.1073706211       -0.2318407506
 O        -8.2838085988       -0.3301947646       -0.2023091792
 C       -10.3756368947       -1.2706553579       -0.2669851274
 C       -11.3454040316       -1.5519485890        1.0355852551
 O       -12.5388790012       -1.4960893019        1.0406574882
 C       -10.5880889217       -2.1629457536        2.2224796724
 C       -11.4909447536       -2.5825685705        3.3096265470
 C       -12.2900265111       -1.3087168083        3.9362758220
 O       -11.7210117947       -0.2257925131        4.0709784297
 C       -13.8068531616       -1.4815186881        4.5240705598
 C       -14.5699722519       -0.0624659387        4.4807437556
 O       -15.0541188109        0.6054829501        5.3229506965
 C       -14.4094939844        0.6571928013        3.1165275116
 C       -14.2579553701        2.2243100648        3.2082219157
 C       -13.8361946219        2.9003915087        1.7803419587
 O       -12.9089378495        2.5033069621        1.1318585848
 C       -14.5694992663        4.2295141468        1.3275563342
 C       -14.2203691730        5.4041997570        2.3538667018
 O       -13.3172711397        6.1317325123        1.9528177223
 C       -14.8018630144        5.5800281219        3.7992701986
 C       -14.0713871898        4.5433154776       -0.1505449389
 C       -16.1881874622        4.0415135184        1.4139134295
 C       -14.6533992203       -2.4046915150        3.5913924387
 C       -13.5686402705       -1.8382117991        5.9723139243
 C       -11.3308020910       -0.9063858799       -1.5272989843
 C        -9.5355579368       -2.5173062851       -0.5251222593
 C        -9.6195310708        3.7398662131        2.4187470146
 C       -10.5159148879        5.6995395970        0.9412543414
 C        -3.6383686907        2.8283001713       -1.1268547735
 C        -2.9592112608        5.2035820923       -0.7851058787
 C        -8.4851859716        8.3172079239       -5.8666969465
 C        -6.0284667619        8.6176830148       -5.8107516501
 H        -7.9108619501       10.8615456409       -4.6537834385
 H        -6.7382985409       10.5406537853       -3.2631307897
 H        -8.5100562995       10.6544892792       -2.9608095433
 H        -5.2732501817        6.6284113539       -3.8172617459
 H        -5.7238971477        5.7000722444       -5.2664172795
 H        -6.4587920931        3.7203608814       -3.5175447371
 H        -6.6315153481        5.0703654359       -2.3138082631
 H        -5.9518191341        6.2831979024        0.3603129344
 H        -4.6686536297        5.2966478987        1.3694086046
 H        -6.7539203603        5.4664451718        2.5994234113
 H        -6.6886207923        3.9633623530        2.0011667623
 H        -8.2769428262        2.3130851151        0.8422547335
 H        -8.2936827594        1.8809272484       -0.9216716562
 H       -10.7999620815        1.3782258201       -0.5845208255
 H       -10.4280890004        1.2393788810        0.9689058456
 H        -9.9331667530       -1.3602002663        2.5507917354
 H       -10.1170831940       -3.0229828336        1.9298730342
 H       -10.9235463563       -3.0344772490        4.0740671071
 H       -12.1599295801       -3.2235542655        2.8192567395
 H       -15.2041626182        0.3986497849        2.5310935022
 H       -13.4974198349        0.3798627599        2.4807686919
 H       -13.6954083908        2.4058239593        4.0445219571
 H       -15.2591518179        2.6926320681        3.3751010042
 H       -15.0855836449        6.6015619228        3.9187604874
 H       -14.0402255860        5.1538967549        4.4188479256
 H       -15.6128823905        4.8920261090        4.0036748674
 H       -13.0124357136        4.3118007359       -0.2631433105
 H       -14.3314254236        5.5223597013       -0.4397898155
 H       -14.5501765500        3.8694365155       -0.7720610312
 H       -16.6847842050        4.8653346355        0.9413546471
 H       -16.5339749200        4.1256808266        2.4594400034
 H       -16.4475326850        3.0325613444        1.0572410351
 H       -14.1814221636       -2.4733153372        2.4936066111
 H       -15.6244048780       -1.9765105951        3.4069507009
 H       -14.9927840232       -3.3102043160        4.0917631450
 H       -12.7439126686       -1.2156029706        6.3662281458
 H       -13.3653388822       -2.9652109776        6.1678434736
 H       -14.4725696641       -1.6376042136        6.5020342130
 H       -11.2951678893       -1.9373567576       -2.0090406668
 H       -10.8789729173       -0.0422987805       -2.1116190131
 H       -12.3318623913       -0.6511117240       -1.2756225592
 H        -9.0514914137       -2.5710514978       -1.4622541616
 H       -10.2027462209       -3.4455804724       -0.6672309595
 H        -8.9404610981       -2.6192937875        0.3244472410
 H       -10.4576985549        3.0460592571        2.2551047343
 H       -10.0411602912        4.1651689671        3.2326651237
 H        -8.7317083899        3.1617439353        2.6945860602
 H       -10.1278745318        6.4179087698        0.2405977503
 H       -10.9107266571        6.1254401293        1.8473139031
 H       -11.4317637387        5.2784896097        0.5118091834
 H        -4.3032137238        2.0315471857       -1.5886922636
 H        -3.4241162203        2.4572834520       -0.0820988762
 H        -2.8032493257        2.7587869289       -1.8595598669
 H        -3.1480466657        6.2417315461       -1.0015643718
 H        -2.0232192609        4.8337860815       -1.1350550221
 H        -2.8340942570        5.1439328989        0.3872610348
 H        -8.2649650023        9.0892990528       -6.6062706426
 H        -9.3484808647        8.5427639977       -5.2186700596
 H        -8.9296520996        7.3900703974       -6.1977172892
 H        -5.1806851676        8.4052517853       -5.0821056153
 H        -6.2546432487        9.5795655373       -6.2102245175
 H        -5.9596248208        8.0171182228       -6.7809387485
 Na       -8.9801826359        6.7495062994       -1.6621540979
