117

 C        -7.5298393335       10.5624227284       -3.8585246103
 C        -7.7075716886        8.9857336907       -3.8250997052
 O        -7.6586234918        8.5340108364       -2.6767084935
 C        -7.4343299294        8.0240238109       -5.0981691649
 C        -7.3454706316        6.5565240917       -4.5354605940
 O        -8.3370086803        5.9625078456       -4.2193831157
 C        -5.9016829218        5.9520965779       -4.2602256526
 C        -5.9607982490        5.0619247145       -3.0741291899
 C        -4.4532991972        4.5405754331       -2.7535455665
 O        -3.7273706636        4.4573858546       -3.7118805323
 C        -4.1226944005        3.9765047510       -1.1382803930
 C        -5.3979853840        4.1311862308       -0.4034052802
 O        -6.4460649734        3.5583073961       -0.7481194910
 C        -5.5042485827        5.0198702077        0.8975091208
 C        -6.8623264836        4.9061604869        1.7215310822
 C        -8.0452539925        5.3645019703        0.8569297144
 O        -7.7637716390        6.2227238946       -0.0082098820
 C        -9.5266522296        4.7725224048        1.2095920926
 C        -9.4371433563        3.7275072372       -0.0329236440
 O        -9.8538943832        4.0674993882       -1.1406461611
 C        -8.7799812246        2.3886367970        0.1429452421
 C        -9.9746097669        1.3246225089        0.3286249479
 C        -9.4306950627       -0.1419257840        0.0723872756
 O        -8.2084895547       -0.1762910575        0.0776493080
 C       -10.3589214278       -1.3621505437       -0.0821727688
 C       -11.3283990100       -1.6580466729        1.1657811151
 O       -12.4874457395       -1.4380659241        1.0871304472
 C       -10.6593349247       -2.1713996194        2.4578437731
 C       -11.7716339326       -2.5714289472        3.5297736029
 C       -12.2632431746       -1.2346975171        4.0378147681
 O       -11.6855999705       -0.1494538879        4.0663054193
 C       -13.7360830233       -1.2938477598        4.4920073922
 C       -14.4167212428        0.1364510969        4.3719263754
 O       -15.0147298915        0.7379015616        5.2472386025
 C       -14.2796373095        0.7809693416        3.0989718502
 C       -14.4783179468        2.3227289614        2.9990778311
 C       -13.8601140884        2.9777016929        1.7386916577
 O       -12.8852689316        2.4217101275        1.2211237488
 C       -14.4097718722        4.3526152931        1.1817393364
 C       -13.9303055329        5.5081103097        2.2080907969
 O       -13.2012256607        6.3635708652        1.8136364064
 C       -14.6414799967        5.5969085137        3.6222473625
 C       -13.7573264279        4.6061365503       -0.2804897017
 C       -15.9412444079        4.2069632773        1.0870821721
 C       -14.8161579113       -2.1469898269        3.7603511001
 C       -13.8455077746       -1.7234580595        6.0066758073
 C       -11.2126599756       -1.0603112546       -1.3090813807
 C        -9.5450111079       -2.6768873296       -0.4393546801
 C        -9.5578359293        3.9686087966        2.5487804505
 C       -10.5823287686        5.8939249785        1.1454916770
 C        -3.7189710642        2.4427677015       -1.0943713116
 C        -3.0195638822        5.0641663298       -0.6644407568
 C        -8.5207418808        8.0848104013       -6.2003687812
 C        -6.0862261485        8.5476490767       -5.6219071284
 H        -7.3989773971       10.8185199501       -4.9799852217
 H        -6.5858809390       10.7809056058       -3.3203801477
 H        -8.5099055606       11.0048705833       -3.6542339371
 H        -5.4286933981        6.8513917194       -3.9531173693
 H        -5.2416554446        5.4848973672       -5.0509233760
 H        -6.5175591249        4.1694759238       -3.3635718260
 H        -6.3532361106        5.4260530903       -2.1413272631
 H        -5.5679213367        6.0248417463        0.4018431037
 H        -4.6981892425        4.5450775864        1.5561083198
 H        -6.8737998518        5.4838032361        2.6286041034
 H        -6.9653776928        3.9130716796        2.2508768514
 H        -8.1258620796        2.2352279618        0.8947970816
 H        -8.2649233652        2.0825434604       -0.7496834575
 H       -10.9435433410        1.3623926236       -0.2427212444
 H       -10.3274142519        1.2782895973        1.4007223748
 H       -10.1487894185       -1.2954107769        2.9449731058
 H        -9.9905327004       -3.1260986448        2.2929061224
 H       -11.2453902631       -3.1660139579        4.3745210442
 H       -12.6584499807       -3.1282033024        3.1161968164
 H       -15.2019591045        0.4017617842        2.4759603319
 H       -13.4758487170        0.4759086253        2.5090270099
 H       -14.0143156060        2.9321362814        3.9236162732
 H       -15.5132706055        2.6060294445        3.1630223572
 H       -15.2077084391        6.5116958075        3.5179885884
 H       -13.9583918250        5.5501740409        4.5424976948
 H       -15.2645747784        4.6614223540        3.7377756610
 H       -12.6519549656        4.7060129435       -0.2199982127
 H       -14.2321597224        5.6139409284       -0.4715429325
 H       -13.8515404087        3.8525971374       -1.1402743883
 H       -16.2442998771        5.0889359622        0.5474429590
 H       -16.3604818331        4.3945300859        2.0884216450
 H       -16.3205278161        3.3538649036        0.6409936790
 H       -14.6265679630       -2.1979801820        2.7434900533
 H       -15.8099809352       -1.6380719371        3.8023518105
 H       -15.0305161129       -3.1056183217        4.2681073854
 H       -13.4528544926       -0.8980551416        6.5409477899
 H       -13.4244680442       -2.7012235036        6.1629191173
 H       -14.8582584624       -1.8628912167        6.3414511563
 H       -11.5057323372       -1.9014498555       -1.8153865474
 H       -10.6980100688       -0.3350617830       -1.8403711031
 H       -12.0721629165       -0.5303821219       -0.8702992699
 H        -9.2539257716       -2.6243007464       -1.4570218966
 H       -10.1982583503       -3.5900260191       -0.5366710842
 H        -8.7857982489       -2.9015734720        0.3168589771
 H       -10.5044512676        3.5433569822        2.7267406293
 H        -9.6034408275        4.6434632384        3.5061186424
 H        -8.7868142529        3.2680483749        2.6999259249
 H       -10.5484266209        6.5006850541        0.2020652416
 H       -10.5829030328        6.5011859962        2.0209824217
 H       -11.4996305299        5.3860482663        1.2701075506
 H        -4.6964606517        1.9391254753       -1.1753464147
 H        -3.2303569374        2.2105829284       -0.2027482205
 H        -3.1439522076        2.0721188092       -1.8983844694
 H        -3.5221806123        6.0436510420       -0.6797528869
 H        -2.2372620263        4.9115661031       -1.4692040505
 H        -2.4847571374        4.9791148851        0.1909555891
 H        -8.7722552006        9.1477854036       -6.2651515588
 H        -9.3084373121        7.3766035127       -6.0443631142
 H        -8.1709853975        7.6504536436       -7.1433046728
 H        -5.5503278238        9.0057400333       -4.8700021673
 H        -6.3610351871        9.0233276038       -6.5461660980
 H        -5.5497916411        7.7231603547       -6.0226342729
 Na       -9.1159996841        6.6456913994       -1.9898740705
