117

 C        -7.7126885083       10.4847223007       -4.3290047334
 C        -7.9754699621        9.0668217272       -3.9626446497
 O        -8.6202453685        8.6372456118       -3.0192600961
 C        -7.2835771201        8.0493146886       -5.0675665663
 C        -7.0872909769        6.5477260623       -4.4878179207
 O        -8.1703791109        6.0432866740       -4.1610752451
 C        -5.7550690202        5.8875505294       -4.2891787045
 C        -5.7268471492        5.4661161716       -2.8586791237
 C        -4.5049707841        4.4796579823       -2.6594969574
 O        -3.8772914356        4.2085770673       -3.6657111987
 C        -4.1793474182        3.7875932787       -1.2054821824
 C        -5.4383957281        3.7957974974       -0.2791343262
 O        -6.5758754403        3.5117422390       -0.6281162540
 C        -5.2981562045        4.6061445962        1.0386729501
 C        -6.6996196411        4.9167836734        1.7268879817
 C        -7.7991147943        5.3177983738        0.7242026314
 O        -7.4592562523        6.0203891230       -0.2051711889
 C        -9.2725006172        4.9221121407        1.1436796535
 C        -9.7652553285        3.7687658587        0.1509050050
 O       -10.0349518886        4.0620226583       -1.0236732906
 C        -9.3057692773        2.2303702503        0.2040599049
 C       -10.1808569878        1.0964091950        0.6714595487
 C        -9.5190073420       -0.3107679947        0.4907591477
 O        -8.3066497443       -0.3956521666        0.6582283996
 C       -10.3055615177       -1.5563786607        0.0894522523
 C       -11.3322661606       -1.6928494154        1.2559825192
 O       -12.4604856796       -1.2009422028        1.2292355669
 C       -10.7100046256       -2.3219488629        2.6246003833
 C       -11.6552459013       -2.4699334516        3.7937819492
 C       -12.3552598658       -1.1343742938        4.1877483254
 O       -11.6710490549       -0.1565471308        4.2716426978
 C       -13.9834867737       -1.1309801655        4.5089075549
 C       -14.3373598840        0.3593718096        4.2512692839
 O       -14.7529347011        0.9541769512        5.2484213296
 C       -14.3046633894        0.8724202553        2.8899886458
 C       -14.5801914125        2.3947504747        2.7374760284
 C       -13.8216992231        3.1796813142        1.6370393039
 O       -12.7566112658        2.6798414050        1.3221022809
 C       -14.3227838632        4.4790077906        0.9859188989
 C       -14.0672765619        5.6637087552        1.9763525003
 O       -13.3938193042        6.5424714340        1.5638711973
 C       -14.6281947683        5.9133480018        3.3680766171
 C       -13.5527541044        4.7606523555       -0.3502821301
 C       -15.8110500321        4.6256677845        0.6765460666
 C       -14.9073537647       -2.1303142152        3.7537587178
 C       -14.0882632035       -1.3663103482        6.0451088242
 C       -11.2640730786       -1.2042980770       -1.1463883969
 C        -9.3423655241       -2.7388401915       -0.1172331133
 C        -9.2955566146        4.4026064239        2.6355125192
 C       -10.1023217183        6.1779427207        1.0434585628
 C        -3.7571373197        2.2844348497       -1.4920064189
 C        -2.9560025378        4.5455026696       -0.6398896497
 C        -8.5901447135        8.0824993223       -5.9401875879
 C        -6.0495187995        8.4459281488       -5.9594784463
 H        -7.5727037159       10.8215432093       -5.3703079618
 H        -6.7667232218       10.6273713380       -3.8363813903
 H        -8.5740519112       10.9537528094       -3.9994819941
 H        -4.9709684823        6.5886877250       -4.4331042031
 H        -5.5748182457        5.1163958464       -5.0992086313
 H        -6.5367355785        4.7720694554       -2.5162674402
 H        -5.7200755531        6.2732911706       -2.1606177306
 H        -4.7857223056        5.5155890636        0.7126561420
 H        -4.7224044328        3.9032171657        1.7308282531
 H        -6.3639978391        5.8172053132        2.2808537081
 H        -6.8850329872        4.2339097548        2.5679882543
 H        -8.2398850015        2.1517492663        0.6154219392
 H        -9.1355823383        2.0762055817       -0.9573278584
 H       -11.0910840175        1.2122832397        0.0840039924
 H       -10.3734399527        1.0984260160        1.7369045458
 H        -9.9297565235       -1.7083800602        2.9652069288
 H       -10.4336713211       -3.3792504736        2.4440174340
 H       -11.2642435901       -2.9697511157        4.6222014136
 H       -12.4933533245       -3.1340059073        3.4698737466
 H       -14.9887569808        0.2822206953        2.2315664514
 H       -13.3359530817        0.6786070607        2.4873323954
 H       -14.3041245002        2.8527678775        3.6694071630
 H       -15.5777688928        2.6707349103        2.7203832777
 H       -15.2383499649        6.8130985104        3.5134726200
 H       -13.6688281542        6.0410236580        3.8468515557
 H       -15.0465922675        5.0309429137        3.8257240016
 H       -12.5572941572        4.5788755299       -0.1837453326
 H       -13.7139035096        5.7052921141       -0.7502687906
 H       -13.8045159663        3.9110702930       -0.9731363410
 H       -16.0537167439        5.5057162215        0.0479409511
 H       -16.4587846445        4.4979304962        1.5327640579
 H       -15.9996124196        3.7693056777        0.0048793590
 H       -15.2094457696       -1.8181308318        2.8065993393
 H       -15.8936282440       -2.1410876647        4.3689617229
 H       -14.4080418021       -3.1464588157        3.7217433992
 H       -13.4172618482       -0.6041869160        6.4869553638
 H       -13.8381086480       -2.3742317724        6.1828519981
 H       -15.0683710458       -1.1902718756        6.5755576323
 H       -12.2284945345       -1.3542482142       -0.6503460426
 H       -11.1670159022       -1.9397188121       -1.9624023740
 H       -11.1124413619       -0.0773880838       -1.4136708887
 H        -8.6788816846       -2.3853234294       -0.9375826589
 H        -9.9105109961       -3.5691380029       -0.5097533779
 H        -8.7346359726       -3.0764774688        0.7355967325
 H       -10.2533926073        4.2916553367        3.0666306793
 H        -8.7602132478        5.1148747076        3.3362204813
 H        -8.8220772148        3.4753137616        2.8207160725
 H       -10.2426554096        6.5001072995        0.0044324226
 H        -9.4975504673        7.0210763046        1.4867414734
 H       -11.0703284003        6.0976888132        1.5253186535
 H        -4.5707807751        1.8445690923       -2.0650746575
 H        -3.3682071504        1.7170063602       -0.6267980186
 H        -2.8278084930        2.2592090122       -2.1029157340
 H        -3.0680002504        5.6564443311       -0.8032068004
 H        -2.0716275748        4.1350603049       -1.1914752336
 H        -2.7088924826        4.4556617794        0.3804082034
 H        -9.4776529492        8.5052931798       -5.4355178303
 H        -8.8726979511        7.1082754657       -6.3697772444
 H        -8.4064802473        8.7027674367       -6.8212486855
 H        -5.1117919657        8.3663678860       -5.3170791086
 H        -6.2600657028        9.5366187429       -6.2965140265
 H        -5.9797160816        7.7708530903       -6.8295089584
 Na       -9.0552573373        5.8659582860       -2.1824119412
