117

 C        -7.9055626617       10.4440059409       -3.9804294631
 C        -8.2531158370        8.8828054016       -4.2246534040
 O        -8.7093242153        8.3440681225       -3.2421902148
 C        -7.4727968318        7.9081948513       -5.3164953464
 C        -7.2621341532        6.5633174250       -4.5023659701
 O        -8.2875207493        6.0804147163       -4.0462381110
 C        -5.7332383886        6.0829834445       -4.1945200872
 C        -5.5257688220        5.5222512883       -2.7681319677
 C        -4.3446773406        4.4385787051       -2.6941196187
 O        -4.0058858035        3.8272203922       -3.6656224498
 C        -4.0189200405        3.6881325862       -1.2425458499
 C        -5.3183584349        3.8841966268       -0.3091501869
 O        -6.3393695980        3.2673240494       -0.5327309094
 C        -5.2026857266        4.6599805543        0.9060608930
 C        -6.5102799865        4.7847471024        1.6403468260
 C        -7.6155530589        5.0662728023        0.7488703256
 O        -7.3437704862        5.6251937157       -0.3331704550
 C        -9.1727119440        4.8116693586        1.0683173060
 C        -9.6722446494        3.7843087254        0.0829155450
 O       -10.1527999575        4.1091536279       -0.9802236617
 C        -9.1371968725        2.3579668476        0.3504482440
 C       -10.2246596918        1.2608194872        0.7552353713
 C        -9.6111957334       -0.1180247860        0.6765267023
 O        -8.5135364810       -0.2045768304        1.1080694004
 C       -10.3903361738       -1.4559857827        0.2813743784
 C       -11.3963160038       -1.6857178278        1.5925143141
 O       -12.5236523132       -1.2566865950        1.6044201469
 C       -10.7543089282       -2.4680524912        2.7390264453
 C       -11.8143807297       -2.6102080043        3.8919618393
 C       -12.4256249180       -1.1440746298        4.2758030973
 O       -11.7339051887       -0.1434630863        4.2868418673
 C       -14.0366760613       -0.9033159957        4.5398360000
 C       -14.3087181411        0.5715496455        4.2222129717
 O       -14.6235387460        1.4711273549        5.0022148234
 C       -14.2555130420        0.9474333387        2.7307696367
 C       -14.7145527526        2.4461095827        2.4616468446
 C       -13.8535655298        3.3170483469        1.5805455110
 O       -12.7130949813        2.9864468932        1.4593300807
 C       -14.2892544169        4.7027046866        0.9338661008
 C       -14.0425687618        5.9631502328        1.7398878234
 O       -13.2267595701        6.8498469736        1.4450987426
 C       -14.7466797827        5.9436276126        3.0830003214
 C       -13.5573777752        4.7658346363       -0.3809773443
 C       -15.8109432363        4.4987958822        0.6577478769
 C       -14.8296412155       -2.0163195048        3.6698571400
 C       -13.9679833983       -1.3172179972        6.0060992081
 C       -11.0540886218       -1.2577277312       -1.0801786111
 C        -9.5145258073       -2.6640343377        0.1662217958
 C        -9.4966572435        4.2636029017        2.4845795939
 C        -9.8960901054        6.2194512270        0.8444692803
 C        -4.0684891750        2.1935776086       -1.5614393804
 C        -2.7163564650        4.1410687872       -0.6461170372
 C        -8.5436321156        7.6983556702       -6.4285635901
 C        -6.2327311516        8.6940214232       -5.9876640913
 H        -8.6319832431       11.1279146160       -4.3994394171
 H        -6.9580080288       10.5990699436       -4.5285698505
 H        -8.1455594871       10.4624478763       -2.8863501238
 H        -4.9933433797        6.9489834807       -4.2601029776
 H        -5.3663357233        5.5096180717       -5.0131895264
 H        -6.3038427019        4.9429986503       -2.2632807801
 H        -5.3022897679        6.3499557513       -2.0326883868
 H        -4.9216711138        5.6989869070        0.5100903427
 H        -4.4103141662        4.1783597960        1.4993461321
 H        -6.2029449881        5.5132086368        2.4093809442
 H        -6.7662179179        3.8796870991        2.2139469827
 H        -8.4391226738        2.3672359950        1.1469758129
 H        -8.6062271263        2.1762447294       -0.4865108693
 H       -11.0177607959        1.5339957733        0.0506543236
 H       -10.5316593954        1.3990262850        1.8291758309
 H        -9.8922848171       -1.7592170904        3.1044266811
 H       -10.4460923985       -3.4816756871        2.3932230800
 H       -11.6122405082       -3.0169421154        4.9535731339
 H       -12.6128738938       -3.3286330468        3.6485478265
 H       -15.0585945473        0.3225028438        2.3728969098
 H       -13.3388704022        0.6764538988        2.1085838914
 H       -14.8330812977        3.0247137555        3.4313477054
 H       -15.8190526268        2.5310265388        2.0731641440
 H       -15.2726211693        6.9495367346        2.8946449570
 H       -14.1265844783        6.1342933349        3.9759363294
 H       -15.5717865563        5.2224325809        3.2194929039
 H       -12.4190350364        4.8191866281       -0.2053396854
 H       -13.8550707868        5.6823483115       -0.9763687207
 H       -13.7972030465        3.7955837817       -0.8529747835
 H       -16.3073431658        5.2161231828        0.0888031571
 H       -16.3237399372        4.3038214733        1.5497135649
 H       -15.9593346350        3.5403206428        0.1463211813
 H       -14.3172626996       -2.2663653961        2.6676343026
 H       -15.8232459830       -1.7886915203        3.4856279902
 H       -14.7705778738       -2.8786706459        4.2717215120
 H       -13.2118130733       -0.8261729404        6.5804440602
 H       -13.9321907483       -2.4268927286        5.9922692353
 H       -14.8630773753       -1.0417803355        6.4592168921
 H       -11.7574756515       -0.4789987135       -1.2409000435
 H       -11.5506222049       -2.2055710974       -1.0640281928
 H       -10.2845413400       -1.2537986587       -1.7093147659
 H        -8.6629532150       -2.7230152904       -0.5847727302
 H       -10.1423556461       -3.5003633569        0.2496862069
 H        -8.9293347052       -2.5961704206        1.0960041948
 H       -10.4366716963        3.6523553439        2.4892039478
 H        -9.4181950958        4.8397537598        3.3313215403
 H        -8.7995945730        3.3944059010        2.6730633699
 H        -9.6035655766        6.5870485544       -0.1062788277
 H        -9.6046547980        6.9717142608        1.5356933125
 H       -10.9569863415        6.0271531593        0.6741988658
 H        -4.9800926481        1.8572809906       -1.8976224880
 H        -3.7738477045        1.7876109899       -0.5916760162
 H        -3.2325849779        1.9218806836       -2.1479448491
 H        -2.8099124790        5.0938293502       -0.1674112255
 H        -1.9439548471        4.1245662192       -1.3706037064
 H        -2.4025531879        3.4697758386        0.2669235875
 H        -9.2475695845        6.8800697053       -6.1414914909
 H        -8.0917354001        7.3332312961       -7.3841138989
 H        -9.1533883402        8.6166356895       -6.6377137073
 H        -5.5434375644        9.1229273230       -5.2843710589
 H        -6.5831310340        9.5511088459       -6.5368049432
 H        -5.7565775778        7.9204809416       -6.5261842992
 Na       -8.8986450903        5.7873053273       -1.9719494451
