117

 C       -10.3127654911        9.0864151298       -1.8174716129
 C        -8.9877072143        9.7268659922       -1.2206800696
 O        -9.0462019552       10.1420173947       -0.0715595859
 C        -7.7456247859       10.1868991207       -2.1852282126
 C        -6.7426351090        9.0069386513       -2.3179331380
 O        -6.3606503049        8.7652402358       -3.4225260489
 C        -6.0608300885        8.3377552508       -1.0901574962
 C        -5.3065867329        6.9949164613       -1.4483970178
 C        -6.2641894806        5.8212303221       -1.8257675799
 O        -7.4394399816        5.9988749779       -2.0136538086
 C        -5.6958558048        4.3655969450       -1.7443649345
 C        -5.7760074242        4.1842352316       -0.1518174202
 O        -5.0900526893        4.9253873403        0.5297469993
 C        -6.8012641014        3.1873428820        0.4587882160
 C        -6.3443589917        2.6776442245        1.8879770364
 C        -7.1793334019        1.4567976921        2.3644603206
 O        -8.0753107864        1.0042335753        1.6401098899
 C        -7.0866969627        0.8743475867        3.7762969445
 C        -8.2905907250        1.6910099893        4.4851188569
 O        -8.0456361032        2.7803259172        4.9140539214
 C        -9.6605483867        1.0276238965        4.9057739363
 C       -10.6831728670        2.1246581014        4.8530001070
 C       -10.8009621744        2.9783544692        3.5504775982
 O        -9.8400120414        2.8427738599        2.7811262502
 C       -12.0564051954        3.8534817017        3.1184961296
 C       -12.9293144164        2.8634415768        2.1699264186
 O       -12.3247496576        1.9182894329        1.6983955093
 C       -14.3747472919        3.2398517367        1.8749771439
 C       -14.7845004520        2.7015449849        0.5209525730
 C       -14.5797245186        3.8210069292       -0.6173887612
 O       -14.3197455708        4.9430706316       -0.4570644837
 C       -14.8488500242        3.3176632968       -2.0875043526
 C       -13.8696422638        2.4054837174       -2.7642548549
 O       -14.0975209143        1.1689067182       -2.7630576245
 C       -12.5679131948        2.8569299153       -3.4225461783
 C       -11.5758454934        1.6290622115       -3.5802571237
 C       -11.1546330518        1.0580979782       -2.2219686142
 O       -11.4479821814        1.6944102189       -1.2467505656
 C       -10.4017948469       -0.3423208384       -2.1622001871
 C       -11.0166855264       -1.0135985633       -0.8969265471
 O       -10.7107245516       -0.6001046140        0.2448144071
 C       -11.9643165723       -2.2113884036       -1.0586443399
 C       -10.5859058510       -1.1378993988       -3.3967285667
 C        -8.8475729080       -0.0449112175       -1.9308214011
 C       -16.2310167540        2.6372958933       -2.0306501283
 C       -14.9351148273        4.5210368957       -3.0550756083
 C       -12.9582899951        4.3143575235        4.2214384046
 C       -11.4818525104        4.9955497221        2.2557146290
 C        -7.2379242351       -0.6238367884        3.7450249616
 C        -5.6842709743        1.0284512860        4.5126461710
 C        -6.5668861475        3.3363720078       -2.5326632922
 C        -4.2062876439        4.2621537872       -2.2086091840
 C        -8.3005226090       10.7472853976       -3.5487344845
 C        -6.9654486290       11.3548137440       -1.4316974003
 H       -10.9532695405        9.9240746260       -2.0798703973
 H       -10.6399753603        8.1623180165       -1.2473451501
 H        -9.8879180495        8.6805755135       -2.7866751512
 H        -6.6251427852        8.0301897190       -0.2533931501
 H        -5.2822663764        8.9424315684       -0.7860490704
 H        -4.7343159798        6.7079014524       -0.5528453696
 H        -4.5471724391        7.1078179862       -2.2404605305
 H        -6.9717209396        2.4049815232       -0.2300887675
 H        -7.7213271507        3.6236789296        0.7327117800
 H        -6.3196369422        3.4618293528        2.6820353905
 H        -5.3054482991        2.2991840090        1.9747748491
 H        -9.4855923282        0.8009228529        5.9848885901
 H        -9.9011933196        0.1610985475        4.3098401974
 H       -10.3928400471        2.8094843903        5.6587460237
 H       -11.7539587496        1.7704116488        5.0378361584
 H       -14.4392638733        4.3333279183        1.9493562824
 H       -15.1430009090        2.9024392198        2.6261209389
 H       -15.8575906312        2.5410750655        0.4835999398
 H       -14.2489664529        1.7588259736        0.2659463247
 H       -12.1123088301        3.6818048370       -2.8723613648
 H       -12.8515968021        3.1597290568       -4.4328026860
 H       -10.7652936673        1.9365089586       -4.1377453098
 H       -12.1497154082        0.8981528739       -4.1779836410
 H       -12.3145080090       -2.6338362721       -0.0863996829
 H       -11.5287806401       -3.0021745056       -1.6232569981
 H       -12.9006576643       -1.8702043958       -1.4429720305
 H       -10.2880058070       -0.7624172224       -4.3883879074
 H       -11.5845564161       -1.5456791451       -3.5428366044
 H        -9.8579748553       -1.9159245074       -3.1999739584
 H        -8.7409783155        0.8698714364       -1.2124167663
 H        -8.2864456806        0.1390535011       -2.7620034748
 H        -8.3248713296       -0.8707090715       -1.4096067038
 H       -16.2054418761        1.6967927183       -1.4734672967
 H       -16.4535413495        2.5122391158       -3.1102980783
 H       -17.0248574209        3.2513714633       -1.6617693902
 H       -15.0948221652        4.1503031702       -4.0887245016
 H       -14.0414483299        5.0793105782       -3.0018141029
 H       -15.8185289675        5.0957312826       -2.6946156578
 H       -12.4785963449        5.0505796190        4.8360744393
 H       -13.1886203573        3.5981742413        4.9667551461
 H       -13.8194958019        4.7874977830        3.7849805255
 H       -11.3096080814        5.9045957363        2.8273160658
 H       -12.1891848193        5.2910730241        1.4944640018
 H       -10.6619719410        4.6896438912        1.6739282503
 H        -7.5939960153       -0.9166801369        4.7350019426
 H        -6.3272632060       -1.0692946573        3.5467047310
 H        -7.9412391174       -1.1127351358        2.9369120643
 H        -5.0948502254        0.2425465198        4.1271122779
 H        -5.8200821182        0.8762570490        5.5770487377
 H        -5.1382870045        1.9749651901        4.4710467058
 H        -7.5970767723        3.2326516334       -2.1656949118
 H        -6.1701501649        2.3767497353       -2.3842416925
 H        -6.6916659262        3.5435424154       -3.6203198629
 H        -4.0719179266        4.5751081128       -3.2723322007
 H        -3.9397673019        3.2155972098       -2.2731538536
 H        -3.5737417561        4.7900747353       -1.4783568597
 H        -7.3983864725       10.8671650810       -4.1444417993
 H        -8.8239522669       11.6183373690       -3.3204755513
 H        -8.8990967965        9.9004728066       -3.8809926374
 H        -6.6471372193       10.9254950199       -0.4848092711
 H        -7.6245138572       12.2171926954       -1.2209625665
 H        -6.1093724153       11.6922586807       -2.0196677239
 Na      -10.0599574878        1.5783667890        0.6947277670
