117

 C        -8.2088420821       10.1451916967       -4.0473116922
 C        -8.4946074254        8.6411928644       -4.1413666151
 O        -8.9864368157        8.0312644412       -3.2255621214
 C        -7.5589836444        7.8143540425       -5.1778205745
 C        -7.0176154065        6.5046733972       -4.5005939106
 O        -7.8553176648        5.6482833975       -4.1532684140
 C        -5.6078679271        6.2490791726       -4.1053773008
 C        -5.4617039164        5.4607985748       -2.7942610807
 C        -4.5547738439        4.1420609952       -2.8368265367
 O        -3.9754360351        3.8901491766       -3.8441200209
 C        -4.1285172789        3.4368691741       -1.4869177838
 C        -5.1008197875        3.7343051337       -0.3413945826
 O        -6.0973723829        3.0301275288       -0.2766580132
 C        -5.1297580812        4.7782653883        0.8868608561
 C        -6.5281720088        4.6312214455        1.7456668133
 C        -7.6775613200        5.1926331837        0.8874227532
 O        -7.3845443653        5.5938089402       -0.2317237635
 C        -9.1080404517        4.8018175139        1.1287021925
 C        -9.4838612550        3.6149398591       -0.0917170049
 O       -10.1070537031        4.0878932937       -1.0541030324
 C        -9.0353975905        2.1821175388        0.1873266077
 C       -10.1991208421        1.2537556446        0.4992136430
 C        -9.6667795342       -0.0256036832        0.9850200341
 O        -8.6014393802       -0.0185207280        1.6165281126
 C       -10.3638817546       -1.3769558351        0.6220080097
 C       -11.4440299465       -1.7756991433        1.6893415393
 O       -12.5317881995       -1.2451997540        1.6075085021
 C       -10.9487203363       -2.5237310220        2.9166174150
 C       -11.9431210092       -2.6025129787        4.0241429220
 C       -12.3568068731       -0.9621215240        4.3011459772
 O       -11.5333996745       -0.0706946763        4.1392705411
 C       -13.9867126616       -0.7518879593        4.4544283651
 C       -14.2547869778        0.8251285452        4.0715497126
 O       -14.5110761083        1.4832296518        5.0201460789
 C       -14.0916772790        1.2088884093        2.6479619894
 C       -14.7332553010        2.5161909553        2.1981038249
 C       -13.7839522420        3.4273944525        1.4661422496
 O       -12.5765155749        3.3226034146        1.7818352904
 C       -14.3984408865        4.7055446070        0.7753687092
 C       -14.0096329910        5.8675152032        1.7802868228
 O       -13.1934648098        6.6704373257        1.3523693303
 C       -14.9084819630        6.2808615050        2.9081308502
 C       -13.6594461115        4.7510666512       -0.5509824837
 C       -15.8677095061        4.6313540711        0.4140849762
 C       -14.9381522374       -1.5676208809        3.6912989636
 C       -14.3013113621       -0.8693203288        5.9451206391
 C       -11.3197639817       -1.2574724004       -0.6795810033
 C        -9.2302443433       -2.4347785867        0.4547987269
 C        -9.4048563033        4.4027796303        2.5631939804
 C        -9.9528876580        6.0603104243        0.8909121023
 C        -4.0243548079        1.9094305145       -1.7359204915
 C        -2.7535725557        3.9688211370       -1.1070616617
 C        -8.4184699251        7.3469488395       -6.4082913825
 C        -6.3935833971        8.6412852843       -5.7675285758
 H        -8.8959256494       10.8118435703       -3.5468486453
 H        -8.2243854652       10.4392592236       -5.0729195209
 H        -7.3057442529       10.0442842552       -3.5053874595
 H        -5.1805688820        7.2025216135       -4.0460440146
 H        -4.9189196598        5.7787509678       -4.8627680339
 H        -6.5195545788        5.3072152240       -2.4718440986
 H        -5.0289663392        5.9481631809       -1.9506466074
 H        -5.0050775395        5.7660388202        0.5210666354
 H        -4.1979217833        4.5683129890        1.4631308157
 H        -6.5169968406        5.1006262347        2.7408154985
 H        -6.6865833175        3.5812669914        1.9799210223
 H        -8.3885346359        2.1481945610        1.1009812112
 H        -8.2966711538        1.9792881458       -0.7599344921
 H       -10.7114565051        1.2961986156       -0.4549876078
 H       -10.7499296889        1.7544387444        1.2514459591
 H       -10.1743589434       -1.9524000980        3.2663203851
 H       -10.6020554287       -3.5496378092        2.7793833614
 H       -11.5913304210       -3.2193166189        4.8085748489
 H       -12.8036744338       -3.1726513237        3.7943729792
 H       -14.6945829558        0.4197251452        2.1003297108
 H       -13.0444208409        1.1490693342        2.4255534207
 H       -15.1010224448        3.1800239614        2.9832057843
 H       -15.5491062883        2.3508358575        1.5848550011
 H       -15.3658533752        7.1482476913        2.9140924678
 H       -14.2483900707        6.3761852037        3.7754472344
 H       -15.5837029433        5.4644635069        3.0428372188
 H       -12.6381356829        4.9114032166       -0.2707389491
 H       -13.9168993035        5.6528516254       -1.1018201096
 H       -13.8523702517        3.8437062439       -1.1316325257
 H       -16.1022705512        5.5817706363       -0.1784425479
 H       -16.6114683582        4.6464952687        1.3146835674
 H       -16.2243016793        3.7913611600       -0.1646439750
 H       -14.5106029655       -1.7374955000        2.7078226511
 H       -15.9105402028       -1.0036826545        3.6912271308
 H       -15.1816586287       -2.5430501492        4.1447249527
 H       -13.8500705790       -0.0025021164        6.4862400949
 H       -13.7628292805       -1.7574039115        6.3559589016
 H       -15.4369503659       -0.8698799601        6.1244620756
 H       -10.9000038147       -0.4238232697       -1.2977808438
 H       -12.3403498344       -1.0200367027       -0.3697484713
 H       -11.0598084016       -2.1848891365       -1.3048624653
 H        -8.8055789554       -2.2179876976       -0.4226101530
 H        -9.8207514281       -3.4658289895        0.4494307138
 H        -8.3649273144       -2.4419148098        1.0799492973
 H       -10.4231083590        4.0681067318        2.5251489639
 H        -9.3270274160        5.3395392944        3.2757435394
 H        -8.9097657131        3.6058411433        3.0779434681
 H        -9.4134990585        6.9160997298        0.3551643259
 H       -10.2267090490        6.4249954967        1.8815184426
 H       -10.7635160296        5.7961448407        0.2176363764
 H        -5.1246358348        1.4984378546       -2.0284978832
 H        -3.5822116465        1.3193185232       -0.9055567465
 H        -3.2841512418        1.8598895389       -2.5914544079
 H        -2.6260289115        4.9520429871       -0.6312852029
 H        -2.1351897088        3.9998622832       -2.0733657660
 H        -2.4441567816        3.3070293725       -0.4018340058
 H        -8.5263405409        6.2874454310       -6.3709292241
 H        -7.9753082139        7.4634963641       -7.3448421726
 H        -9.3910584869        7.7579415931       -6.3805919981
 H        -5.8058918037        9.1844808266       -5.0152237450
 H        -6.7610588918        9.5087421815       -6.2378646759
 H        -5.7119084559        7.9375826745       -6.3605758171
 Na       -8.9587784324        5.9490813076       -2.0352754485
