117

 C        -8.4974113760       10.0416212351       -4.0957547608
 C        -8.3216149546        8.4460271065       -4.1022885129
 O        -9.1377522082        7.9301698697       -3.3170381971
 C        -7.4839944843        7.6562035872       -5.0896107777
 C        -6.9348841847        6.3056923586       -4.3589477777
 O        -7.6229173293        5.3603541331       -4.1419252756
 C        -5.4568108169        6.1737580827       -3.9391417341
 C        -5.4855047688        5.4241913479       -2.7071801500
 C        -4.4401335607        4.2177969794       -2.8787753630
 O        -4.0669560997        3.9487407514       -3.9964113005
 C        -4.1492511956        3.4093078360       -1.5587952381
 C        -5.2311888054        3.5528628808       -0.3263972598
 O        -6.1413533841        2.7471282704       -0.2069914107
 C        -5.1108396350        4.6160568578        0.8109678926
 C        -6.3389090580        4.7089945743        1.5666618662
 C        -7.5658052375        5.0644917690        0.6546140983
 O        -7.3815647420        5.8322894194       -0.2531261227
 C        -9.2283351322        4.8125271983        1.2026888261
 C        -9.4102468904        3.7651375586        0.0795094185
 O        -9.8522256684        4.0493106779       -1.0582628876
 C        -9.0235126148        2.3563118360        0.1130284678
 C       -10.2211181942        1.3519265407        0.5103085634
 C        -9.6464272410        0.0242615843        1.0569628545
 O        -8.7845151695        0.0478154161        1.8935467329
 C       -10.3314946506       -1.4027966784        0.5469383564
 C       -11.3975024391       -1.6952547406        1.8325292991
 O       -12.5503376151       -1.3265939746        1.6821128880
 C       -10.9490052415       -2.5640157752        3.0414891064
 C       -12.0321112571       -2.4007889542        4.1120418992
 C       -12.5573308255       -0.9659597686        4.2060351623
 O       -11.6185713627       -0.1302966846        4.1869615519
 C       -13.9314421932       -0.5820837909        4.5287067370
 C       -14.1103131563        0.8967268908        4.2014252744
 O       -14.5460644044        1.7900065296        4.8644714074
 C       -13.9022149351        1.2027304654        2.5804729704
 C       -14.8235617812        2.3836147444        2.2337222430
 C       -13.8807280426        3.5422878618        1.6306799855
 O       -12.6405165021        3.5812104565        1.7798913358
 C       -14.4000918393        4.7345734272        0.6639512258
 C       -14.0738559559        5.9903971908        1.5204156905
 O       -13.0486586291        6.5979740891        1.3163920012
 C       -14.9281778564        6.2713234100        2.7845590487
 C       -13.5527027393        4.8480564087       -0.6176022403
 C       -15.8963868567        4.6743263324        0.4109575001
 C       -14.9785512246       -1.4659915686        3.6459636002
 C       -14.3678734314       -0.7119919294        6.0002334805
 C       -11.2215609015       -1.4277748028       -0.6086817847
 C        -9.2272641052       -2.4529508251        0.3968080513
 C        -9.3352956025        4.2558288483        2.6140770999
 C       -10.0983129276        6.0711481228        0.8380311452
 C        -4.0658089082        1.9015956796       -1.8313289807
 C        -2.7030852277        4.0145416666       -1.2905177503
 C        -8.5484665578        7.2431243240       -6.2630688902
 C        -6.3540289100        8.5769264040       -5.6163267551
 H        -8.9675264633       10.2643152200       -3.1790063385
 H        -9.2281567720       10.4194012221       -4.8017320195
 H        -7.4311847373       10.4172825699       -4.0088895818
 H        -4.9046231317        7.1156614852       -3.9097410636
 H        -4.8208550361        5.5928291842       -4.6437173833
 H        -6.4781244146        5.1322325118       -2.6069714293
 H        -5.2440983517        5.9024172365       -1.7519321379
 H        -4.7825948640        5.6493728620        0.3133454267
 H        -4.2356678069        4.3922257554        1.5191030771
 H        -6.4265526900        5.3684779981        2.4267446790
 H        -6.3952138370        3.6623994232        1.9824104422
 H        -8.2446368699        2.2161447111        0.9086001564
 H        -8.5309907799        2.2207202581       -0.8787325738
 H       -10.6277954757        1.2160128410       -0.4902106887
 H       -10.8913480886        1.9280272957        1.1507438478
 H        -9.8925051762       -2.3515040453        3.3681419105
 H       -11.0243276450       -3.6355625431        2.8143343379
 H       -11.6286987902       -2.8029184875        5.1209049192
 H       -12.7813204067       -3.1083252333        4.0032601965
 H       -14.1918918852        0.3398506039        1.9271467186
 H       -12.9017284420        1.5085779839        2.4829813038
 H       -15.1543583878        2.8017452007        3.1567225779
 H       -15.6847996561        2.1289885255        1.6253027488
 H       -15.5217632646        7.1899328863        2.6929177345
 H       -14.3557376559        6.5246115640        3.6919856428
 H       -15.6704525904        5.5074143985        2.9098462998
 H       -12.5071710687        4.9839583948       -0.3787579733
 H       -13.8295051183        5.8081943948       -0.9659546440
 H       -13.8300806312        4.1926425151       -1.3343942211
 H       -16.1911181328        5.6398731378       -0.0322998943
 H       -16.5061840826        4.6181865588        1.3760020239
 H       -16.3377494716        3.9044797175       -0.2233483023
 H       -14.7465714254       -1.4412478998        2.4669308991
 H       -15.9406856236       -1.1448912583        3.9510353915
 H       -14.9514861073       -2.5398239080        3.9515760781
 H       -13.9700648069        0.0523128742        6.6596353775
 H       -13.8784285254       -1.7018372456        6.3908284658
 H       -15.4428763550       -0.7265820364        5.9787298611
 H       -10.5641152807       -1.5546054625       -1.5375413732
 H       -11.7540705098       -0.3858088969       -0.5857823648
 H       -11.8138665630       -2.3246595178       -0.5605731059
 H        -8.4765417637       -2.0157404198       -0.2807396084
 H        -9.5573526451       -3.4344133011        0.0867564445
 H        -8.6009088740       -2.5032412452        1.2696769739
 H       -10.3855351339        4.2141369345        2.9473848877
 H        -8.8251605901        4.9643198625        3.2101687643
 H        -8.9430708935        3.2729406081        2.8877757196
 H        -9.5486102930        6.9624494705        0.3837979955
 H       -10.5309491217        6.3943846029        1.7494563026
 H       -10.8070243301        5.7389224052        0.0560931580
 H        -5.0819273395        1.5549181825       -1.9393516911
 H        -3.5888798564        1.3433005151       -1.0102203982
 H        -3.4787890283        1.7732450926       -2.7508242945
 H        -2.6823442111        5.0909064479       -1.3145234728
 H        -2.2351212943        3.8178588760       -2.2429944131
 H        -2.1714718273        3.7147760073       -0.3078411090
 H        -8.7207483519        6.1935404472       -6.1794763508
 H        -8.2284057573        7.2995815498       -7.2636380733
 H        -9.4918101200        7.7426447669       -6.0902993413
 H        -5.8221946135        9.1520532117       -4.8178989843
 H        -6.8108933557        9.4433950494       -6.0321874069
 H        -5.6130263169        8.0217851944       -6.2844125177
 Na       -9.0224990292        6.0136156634       -2.1232382631
