117

 C        -8.6774979018        9.8486514917       -4.1800216293
 C        -8.3674458425        8.3242522793       -3.9345018967
 O        -9.2384088121        7.7367135637       -3.3268832856
 C        -7.5031790653        7.5665279061       -4.9948289118
 C        -6.9685015566        6.2986002361       -4.3778687175
 O        -7.6413675525        5.3270443450       -4.2194493718
 C        -5.4935744886        6.2841961557       -3.8439819140
 C        -5.3385178932        5.3868307549       -2.5857867392
 C        -4.5466642293        4.1304333913       -2.7867265557
 O        -4.0942333502        3.8744334836       -3.8994714719
 C        -4.1461651648        3.3204636261       -1.6233909796
 C        -5.1502187150        3.3883913242       -0.4364699887
 O        -6.0259632934        2.5800754387       -0.3264883532
 C        -5.0721412789        4.4627079085        0.6164922803
 C        -6.3665044195        4.7769615427        1.4424634423
 C        -7.6603852451        5.3163944024        0.7231604073
 O        -7.4652697901        5.9412675524       -0.3216806660
 C        -9.0466781503        4.8664279963        1.1122116090
 C        -9.3842986200        3.7544917744       -0.0558832138
 O        -9.6617524036        4.2499917176       -1.1136192408
 C        -9.0050741458        2.2357976538        0.2208522313
 C       -10.2389415721        1.3105067806        0.4963210891
 C        -9.7489474468       -0.0076289879        1.1085439040
 O        -8.9999586202        0.0163173324        2.0625945017
 C       -10.3639411435       -1.3587125553        0.6262040134
 C       -11.2775211846       -1.7792335016        1.8971463789
 O       -12.4268484022       -1.4048051609        1.7480716904
 C       -10.9608828680       -2.5947231187        3.0655491011
 C       -12.1073942206       -2.4151717882        4.2417339199
 C       -12.5004299099       -0.9172785629        4.3474568909
 O       -11.7132890643       -0.0336522015        4.2210097622
 C       -14.0678150069       -0.4477093148        4.6067676935
 C       -14.2699153758        0.9738362711        4.0946215976
 O       -14.4942777837        1.9793265261        4.7717433021
 C       -13.7799236219        1.3799602937        2.5748140429
 C       -14.6662850345        2.5403034265        2.0466724071
 C       -13.8596923921        3.6621412354        1.5348398505
 O       -12.7212032644        3.6657470726        1.8329868147
 C       -14.4564443227        4.8331207671        0.6344384312
 C       -14.0280888082        6.0689773184        1.4598416443
 O       -12.9797312871        6.6485069550        1.3116277510
 C       -14.9198178918        6.3340636258        2.6964025507
 C       -13.5760347344        4.8250107223       -0.6744888016
 C       -16.0112102978        4.6474701015        0.3677681264
 C       -15.0154025424       -1.3726143385        3.6584485130
 C       -14.3716539124       -0.6858506303        6.1583185022
 C       -11.1427041750       -1.4063243519       -0.7465422961
 C        -9.2252426666       -2.4245830684        0.5494495963
 C        -9.1957300444        4.1995490618        2.4556020107
 C       -10.0322741997        6.0207284069        0.9066407265
 C        -4.0255696295        1.8496587466       -1.9859402964
 C        -2.7141748867        3.9739827884       -1.2385569802
 C        -8.4886121282        7.1489238992       -6.0290720874
 C        -6.3617068863        8.4128196384       -5.5715290435
 H        -8.9647903020       10.3567682472       -3.2241569391
 H        -9.6745174402        9.9068815029       -4.7044886863
 H        -7.7635704132       10.3079082176       -4.5980142592
 H        -5.0699616866        7.3292516373       -3.6276913647
 H        -4.8280372998        5.9827845149       -4.6271980440
 H        -6.3222472866        5.3036001373       -2.1660190000
 H        -4.7567999366        5.8571236704       -1.7541092583
 H        -4.7316933511        5.4980908484        0.2034361695
 H        -4.2735677893        4.2606072986        1.3944741990
 H        -6.1104202600        5.5794030034        2.1908900696
 H        -6.5870088269        3.8917876625        2.0935569677
 H        -8.4452706102        2.2248817747        1.1577200804
 H        -8.3790197813        1.9891498781       -0.5298822277
 H       -10.7515156982        1.3487260855       -0.4630901085
 H       -10.8141702993        1.8846478746        1.2966961325
 H        -9.9967826325       -2.1469570218        3.5789776057
 H       -10.7685759389       -3.6771416069        2.8523237513
 H       -11.6548271362       -2.8656090085        5.1576508262
 H       -13.0881935059       -3.0405326473        4.2124778670
 H       -13.8302208939        0.6453716309        1.8439493953
 H       -12.7498988746        1.6990254232        2.8881364012
 H       -15.3020826265        2.8996858536        2.8684626707
 H       -15.3570764148        2.1199180996        1.2296440326
 H       -15.5757330051        7.2677021580        2.2802738378
 H       -14.4947425020        6.8155735099        3.5619329936
 H       -15.6868828009        5.5752022382        2.9140084501
 H       -12.5528226339        4.7318757597       -0.4174101841
 H       -13.6668502081        5.7742129396       -1.1288928705
 H       -14.0955082561        4.1863085374       -1.3894970427
 H       -16.4340791246        5.5173521396       -0.0710588303
 H       -16.6387970303        4.4068265816        1.1326277168
 H       -16.1214085685        3.8820639587       -0.4384935246
 H       -14.7386146054       -1.2762780602        2.6527173830
 H       -16.0970845741       -1.2568229259        3.9037611157
 H       -14.8382529528       -2.4406067527        3.9377153937
 H       -13.6399982814       -0.1761096204        6.7926634632
 H       -14.0677047922       -1.6792546138        6.3275364637
 H       -15.3947721805       -0.4902481800        6.4075259273
 H       -10.6339748142       -2.1853752317       -1.3122522810
 H       -11.0653495403       -0.4329255025       -1.2299452669
 H       -12.1662997381       -1.7470852218       -0.5913291068
 H        -8.3373669358       -1.9425207495       -0.0409548287
 H        -9.5219637664       -3.2908502163        0.1161387999
 H        -8.6934830056       -2.5863707449        1.4941572662
 H       -10.2011052257        4.2924474753        2.8830285931
 H        -8.5220486048        4.6754907968        3.0708622503
 H        -8.9489225494        3.1302280480        2.5506714721
 H        -9.5897809615        6.9368569328        0.6567370465
 H       -10.4081952794        6.1033937118        1.9368726914
 H       -10.7946221562        5.8172980971        0.1412819920
 H        -4.9595325421        1.4827231163       -1.9696942160
 H        -3.5223871168        1.3405396830       -1.1864352573
 H        -3.5789461641        1.7238507599       -2.9267492070
 H        -2.8237009810        5.0303368211       -1.5103618011
 H        -2.0457843510        3.7207383829       -1.9851410407
 H        -2.3740474171        3.9828018041       -0.1477404963
 H        -8.8784732475        6.1333244874       -5.9580333440
 H        -8.0200424109        7.0754436893       -7.0464881715
 H        -9.3091659497        7.8667688380       -6.0273410644
 H        -5.7817331217        8.9001477839       -4.7904958774
 H        -6.7558054838        9.3778725743       -6.0560816918
 H        -5.7533619108        7.8556593404       -6.2029324328
 Na       -9.0557806066        5.9881033805       -2.1816338075
