117

 C        -9.5316240014        9.0444127634       -4.9816012642
 C        -8.7716509932        7.8884163376       -4.1666563602
 O        -9.1384991266        7.4847598941       -3.0514795181
 C        -7.6860816795        7.1007406549       -4.9514041711
 C        -6.8013156249        6.2702432391       -4.0080139744
 O        -7.1665378712        5.4522735413       -3.2746360372
 C        -5.2958614022        6.5767656188       -4.0094576370
 C        -4.6058489918        5.7033333556       -2.8842424823
 C        -4.6335602682        4.1585795475       -3.1198815389
 O        -4.6580451524        3.7013459662       -4.2502470713
 C        -4.1503671455        3.1875184236       -1.9048527945
 C        -5.1127617509        3.3889960862       -0.6306267630
 O        -6.1555570364        2.8278200327       -0.6621931565
 C        -4.8899241651        4.3063243904        0.5972495914
 C        -6.2046452539        4.1682825627        1.4587660383
 C        -7.3088256223        4.6645315111        0.5684605051
 O        -7.1613528074        5.3395011529       -0.4213194465
 C        -8.7839046419        4.3805528423        0.9492024614
 C        -9.1040148494        3.2616949612       -0.1781730782
 O        -9.1590697789        3.5897283543       -1.3402066355
 C        -8.8647315088        1.8519146807        0.2620459638
 C       -10.1081245455        1.2867674977        1.0235940385
 C        -9.8338436842       -0.0859593573        1.8508093954
 O        -9.3207219648       -0.0223672916        2.9506087883
 C       -10.1933861592       -1.6090537506        1.2232114343
 C       -11.4924132601       -1.8882091173        2.0898788259
 O       -12.5336548949       -1.9388251702        1.4352478493
 C       -11.3123166850       -2.2524683105        3.5545961648
 C       -12.5611355680       -1.8877214508        4.4287126098
 C       -12.9153811972       -0.3749206059        4.5623281863
 O       -12.0381191898        0.4056899205        4.7631733550
 C       -14.3104845947        0.2929473525        4.8581558674
 C       -14.4587802232        1.6313420897        4.0861297566
 O       -15.4671242571        2.3038458894        4.3461090439
 C       -13.4917086053        2.1186878150        2.8614453591
 C       -14.3496696800        3.0114428655        1.9457464064
 C       -13.5161304285        4.0455246246        1.2417185650
 O       -12.3232746224        4.0721496562        1.0728512028
 C       -14.2705196905        5.1108627590        0.3663821764
 C       -13.9789698147        6.4564509886        0.9935183884
 O       -12.9947546784        7.1445517225        0.6933997792
 C       -15.0045741371        7.0634380887        1.9506561137
 C       -13.8581528307        5.0275744349       -1.1273916198
 C       -15.7497452523        4.8849205193        0.4705873381
 C       -15.3514538103       -0.6407269813        4.2373013353
 C       -14.4534799641        0.6987793660        6.3741636616
 C       -10.5868777170       -1.5440710778       -0.2345878492
 C        -9.0363557710       -2.5690519804        1.5574438599
 C        -9.1240672005        3.8489265268        2.3768422311
 C        -9.6847199173        5.6809306408        0.6890047903
 C        -4.2125396020        1.6796831475       -2.1359373084
 C        -2.6939357955        3.5809509649       -1.6194796612
 C        -8.4065208475        6.1762643593       -6.0559999075
 C        -6.7191035655        8.0644929631       -5.6465270131
 H        -8.7852575369        9.6653297020       -5.4523321080
 H        -9.8233508033        9.6822384015       -4.1181628441
 H       -10.3931058062        8.7011208702       -5.5482161061
 H        -4.9858224659        7.6270249960       -3.7544229966
 H        -4.8501829112        6.3032027416       -4.9685162334
 H        -4.8953534019        6.1219449208       -1.9117646108
 H        -3.4700275044        5.9545675262       -2.9678307230
 H        -4.5620256794        5.3654932877        0.4062016116
 H        -4.0990811675        4.0375488994        1.2996052483
 H        -6.2717825412        4.8367618306        2.2816313807
 H        -6.2889095788        3.0890790625        1.6337333313
 H        -7.8090374965        1.9029960814        0.8560561903
 H        -8.7445195018        1.1251029344       -0.5749835861
 H       -11.0729252117        1.3117358543        0.5690812248
 H       -10.2519050545        1.9940145676        1.8035346031
 H       -10.4499759372       -1.7218619812        3.8976854673
 H       -11.1059290741       -3.2584642545        3.7691654140
 H       -12.5367837058       -2.4185450662        5.3598807087
 H       -13.4112771330       -2.3011018383        3.8364694289
 H       -13.3910609457        1.2814142926        2.1851755742
 H       -12.4147810364        2.4401947704        3.1071262328
 H       -15.1232831979        3.5894344668        2.4661333849
 H       -14.6027698813        2.2289518906        1.2113036652
 H       -15.8958283329        7.4070032352        1.2728419565
 H       -14.5979215686        7.9252595206        2.4103002216
 H       -15.5088091568        6.5155351047        2.6858946786
 H       -12.7273953048        4.9823100334       -1.1143670794
 H       -14.3608530188        5.9184896233       -1.5840589222
 H       -14.2117631518        4.0725606427       -1.6331534900
 H       -16.2624637745        5.6008319068       -0.1664978569
 H       -16.0894088170        5.0324036576        1.4314119984
 H       -16.1016993622        3.8330751388        0.2904013527
 H       -15.1919558274       -0.7866239410        3.2626053965
 H       -16.3644699531       -0.1885580171        4.3199769170
 H       -15.2583548634       -1.5689302201        4.8208138751
 H       -13.7312516830        1.5266218533        6.5845435558
 H       -14.4737799288       -0.1776056886        6.9538845748
 H       -15.4666353047        1.0980398592        6.4668361887
 H        -9.7530063959       -1.6789297092       -0.9072303469
 H       -10.9807682499       -0.5928929349       -0.4681210318
 H       -11.3310573331       -2.3114058887       -0.5288248374
 H        -8.1332935149       -2.1698431525        1.0409625038
 H        -9.1437405518       -3.5587455940        1.0391278495
 H        -8.9010680517       -2.7761742268        2.5729921300
 H       -10.2538374932        3.7570932946        2.4813601572
 H        -8.7533993308        4.5501887454        3.1138566914
 H        -8.5631164274        2.8685599946        2.5007352573
 H        -9.1921781531        6.4812636069        0.2387439222
 H        -9.9631843708        5.9336038021        1.7252835418
 H       -10.6750305445        5.4493580617        0.2961391909
 H        -5.2615857914        1.2337870309       -2.1287456333
 H        -3.4998665713        1.1864434708       -1.3867740106
 H        -3.8403642516        1.6204904897       -3.1960782478
 H        -2.7323598513        4.6413522185       -1.3708067880
 H        -2.0780539399        3.3560998538       -2.4286231043
 H        -2.2466808523        2.9451991000       -0.8325244286
 H        -8.4066675413        6.7284604105       -7.0182274479
 H        -9.5101371273        6.0269963840       -5.8203727380
 H        -8.0789737663        5.1185642950       -6.1495725094
 H        -6.1197960585        8.6883679639       -4.9866823636
 H        -7.2823456494        8.6494431897       -6.4568616790
 H        -6.0165666466        7.6375164261       -6.2559866774
 Na       -9.0014263130        5.5574218089       -1.9784829372
