117

 C       -10.4091940088        9.0974520046       -1.7339714301
 C        -9.1256601475        9.8498518360       -1.3197212868
 O        -9.1581211443       10.2446345347       -0.1585590219
 C        -7.9182633697       10.0959287424       -2.2061270249
 C        -6.8178013758        8.9411066135       -2.3779292333
 O        -6.5104951144        8.6708773952       -3.5128420321
 C        -6.1122523651        8.3165229659       -1.1742619175
 C        -5.3216377658        7.1049425163       -1.6619371868
 C        -6.2078511820        5.8964278077       -1.9361533668
 O        -7.4010200226        6.0235579650       -2.0622847255
 C        -5.6584132633        4.3553065284       -1.6966854250
 C        -5.7704119731        4.0560948785       -0.1580078029
 O        -5.0822953427        4.7794417376        0.5916886000
 C        -6.8290114493        3.1578213426        0.5338033093
 C        -6.3280771485        2.7191168553        1.9697009533
 C        -7.1877025182        1.5057087230        2.3821333202
 O        -8.0476565352        1.0444280158        1.6743786775
 C        -7.0149095032        0.8666217316        3.8639062595
 C        -8.0468412168        1.7589157579        4.6626657673
 O        -7.8429806015        2.9199190854        4.9905237928
 C        -9.5605121712        1.2205732818        4.7949785931
 C       -10.6672044547        2.2656968746        4.9966289965
 C       -10.8029682012        2.9665288227        3.5972349757
 O        -9.8688564807        2.9903001762        2.8178109369
 C       -12.0410163929        3.8855625556        3.1240151532
 C       -12.7940378408        2.9368534569        2.1463559808
 O       -12.3660264108        1.9553030841        1.5716313914
 C       -14.3315608686        3.2295565532        1.8914840107
 C       -14.9534895556        2.7897283750        0.5671399577
 C       -14.5600224082        3.7847294517       -0.5541867615
 O       -14.0917034495        4.8976546015       -0.2506345668
 C       -14.9464516839        3.3322699362       -2.1704381776
 C       -13.8455591066        2.2026107215       -2.6758869050
 O       -14.1613435125        1.0549335715       -2.7099531575
 C       -12.5421336982        2.6783036071       -3.3880633264
 C       -11.6492855461        1.5288727739       -3.5988154701
 C       -11.1741336464        1.0046611058       -2.2542442019
 O       -11.3566560463        1.6674025689       -1.2247961025
 C       -10.3895268176       -0.3950874279       -2.0978351478
 C       -11.0014548346       -1.0232092687       -0.8670840816
 O       -10.7702362275       -0.6358560546        0.2723215660
 C       -11.8528918274       -2.2426750144       -1.1533130459
 C       -10.5058003655       -1.2424621669       -3.4591149327
 C        -8.9086539870       -0.0953559706       -1.8409839871
 C       -16.2860812052        2.5541718310       -2.1086672979
 C       -15.0294975727        4.6443535369       -2.9814454188
 C       -12.8911213835        4.3977553925        4.2826872893
 C       -11.4672915623        4.9625123153        2.2046624076
 C        -7.3564629282       -0.6605162505        3.8137075385
 C        -5.6573279174        1.2128600896        4.5408195984
 C        -6.4873808862        3.3921723398       -2.6350471139
 C        -4.1481319211        4.2693125301       -2.1989209664
 C        -8.2732535065       10.4759358317       -3.6542581960
 C        -7.0771297615       11.3395151388       -1.7166516648
 H       -11.0348109952        9.7303983748       -2.3345990969
 H       -10.7773381929        8.6358778800       -0.8202313830
 H       -10.0556767381        8.2284667414       -2.3041698927
 H        -6.8039497736        7.8755334562       -0.5049720340
 H        -5.4579048743        8.9050915856       -0.6447873840
 H        -4.5458206080        6.8244018561       -0.9746430043
 H        -4.8221831658        7.3705166848       -2.6058104356
 H        -7.1495209738        2.3216368586       -0.1023014533
 H        -7.7323202216        3.6921864874        0.8426931146
 H        -6.2961556385        3.4519975837        2.7498088019
 H        -5.2448871551        2.2927749023        2.0248622020
 H        -9.6102056687        0.5571577901        5.6886279603
 H        -9.7224937178        0.7203826418        3.8985638352
 H       -10.3358770055        2.9639656679        5.7254082734
 H       -11.6746248466        1.8440993945        5.2462589690
 H       -14.6967492988        4.2187079448        2.2865335377
 H       -14.9164485913        2.5261025015        2.5446716967
 H       -15.9988655435        2.7555469070        0.5994856164
 H       -14.5437577690        1.8582722551        0.3063561627
 H       -11.9306365878        3.3442414426       -2.7231492339
 H       -12.8192402354        3.1987704844       -4.2848966300
 H       -10.9208421132        1.8038338131       -4.2708099633
 H       -12.2269933644        0.7475875415       -3.9574742658
 H       -12.3603781541       -2.5167230575       -0.2242596628
 H       -11.3065829163       -3.0575859272       -1.5957237168
 H       -12.7041182279       -1.9651620074       -1.7483620678
 H       -10.0771568896       -0.8565006585       -4.4449728264
 H       -11.5421347153       -1.4747136364       -3.6296223124
 H       -10.0313622631       -2.1573124991       -3.2989451101
 H        -8.7587863992        0.5459296967       -1.0365989071
 H        -8.2559843199        0.2356689135       -2.6871088052
 H        -8.4834964630       -1.0286237298       -1.4945729745
 H       -16.0709111678        1.6371221551       -1.5978552519
 H       -16.6091275609        2.3894435022       -3.1782185822
 H       -17.1862341738        3.0720633538       -1.5708013674
 H       -15.8630898942        4.6366305608       -3.7660773609
 H       -14.0874565340        4.7518364000       -3.4607603223
 H       -15.2191040613        5.4839265759       -2.2272727383
 H       -12.3159281418        4.9863442278        5.0628455676
 H       -13.2802303475        3.5938581726        4.9644932853
 H       -13.7017512312        4.9530796898        3.8673133168
 H       -10.9382123220        5.6423873064        2.8385706112
 H       -12.1320441837        5.5105958947        1.6481091543
 H       -10.8210402069        4.5230226448        1.4621884459
 H        -7.4429873690       -0.9876169696        4.8416359096
 H        -6.4922029904       -1.1516494332        3.3941401279
 H        -8.2282088035       -1.0303322370        3.2654963898
 H        -4.9436107693        0.4370896082        4.4003220850
 H        -5.7309950970        1.3921370629        5.5650593822
 H        -5.2637391523        2.1767115169        4.1691187532
 H        -7.5585480746        3.4319909429       -2.5003073807
 H        -6.3153843355        2.2924333515       -2.5882264876
 H        -6.3419468964        3.7945396931       -3.6712227563
 H        -4.0492477687        4.7195074533       -3.2273890702
 H        -3.9380761221        3.2073317356       -2.4263926679
 H        -3.4542584824        4.6575592549       -1.4666128596
 H        -7.3462081370       10.8492552272       -3.9586832845
 H        -9.0810882296       11.1976215453       -3.7143167782
 H        -8.4892675149        9.5089727906       -4.0294349970
 H        -6.7505160919       11.1683289456       -0.7054814437
 H        -7.5546350245       12.3208035787       -1.8477146086
 H        -6.2125033002       11.3303111551       -2.3546000856
 Na      -10.0882002218        1.6632916218        0.7502001434
