117

 C        -9.6003283688        8.4490237864       -5.2897151292
 C        -8.8336120710        7.2990822687       -4.5727867488
 O        -9.3244676973        6.9078573702       -3.5221087964
 C        -7.4939007034        6.5380954927       -5.1953385530
 C        -6.3776108328        6.2419250327       -4.0627652292
 O        -6.6667189639        5.9773220789       -2.9540041988
 C        -4.9552659535        6.4576929255       -4.4880631053
 C        -3.8758608512        5.6443283694       -3.6340449520
 C        -4.4516301556        4.1703642481       -3.5956330859
 O        -5.2492237138        3.7074392706       -4.4067160843
 C        -4.0835359886        3.3406076036       -2.3646139024
 C        -5.3235227359        3.5996614940       -1.1937451145
 O        -6.4328248535        3.2903634353       -1.4554535973
 C        -4.9402721348        4.3603453809        0.0129551369
 C        -5.8904811372        3.8191093118        1.0538352023
 C        -7.2552954714        4.6449789690        1.0772364114
 O        -7.3420703424        5.5370189854        0.2483443529
 C        -8.6242195976        4.1548208571        1.6162935324
 C        -9.1000000655        3.0886504370        0.4174229014
 O        -9.4929027656        3.5676274599       -0.6452011164
 C        -8.9256275453        1.5612050622        0.4646180190
 C       -10.0496001170        0.8655113114        1.2931956848
 C        -9.3709884884       -0.3285234487        2.0288779588
 O        -8.3345270668       -0.1931761280        2.6551331891
 C       -10.0590788546       -1.8958185167        2.0173246386
 C       -11.5740881245       -1.7734168631        2.5810932514
 O       -12.5559467334       -1.7269239307        1.8573688620
 C       -11.8175444249       -1.6839978280        4.0500428088
 C       -13.2645570202       -1.1746107670        4.3445411556
 C       -13.4003741580        0.2755366126        4.4085894294
 O       -12.5055037882        1.0269354719        4.1442888539
 C       -14.7447243019        0.9838226184        5.0266364519
 C       -15.2663903657        2.1229200651        4.1563079247
 O       -16.3281319963        2.7009532500        4.3622404002
 C       -14.2652341732        2.6363260051        3.0969294912
 C       -14.8096378013        3.8201409571        2.3834355693
 C       -13.9321688316        3.9258516696        1.0317666574
 O       -13.0919128588        3.1425528756        0.6344942433
 C       -14.1656055677        5.2134753188       -0.0038988160
 C       -13.5862714798        6.5904634037        0.5327399716
 O       -12.5176181134        7.0273637419        0.0842363119
 C       -14.3037253559        7.3767239676        1.5603566069
 C       -13.2907635753        4.8772831518       -1.3345144900
 C       -15.7332076052        5.4263825506       -0.1567444709
 C       -15.8639206706       -0.1204007054        5.0663504067
 C       -14.3112327657        1.6778257876        6.4504579926
 C       -10.0646597969       -2.1656229216        0.5083866322
 C        -9.4275038239       -3.0083980292        3.0152055124
 C        -8.4895182819        3.5017852695        2.9865649479
 C        -9.4946741790        5.3831459714        1.5249483794
 C        -4.2037681249        1.7715124199       -2.7443087899
 C        -2.5495943884        3.5549115847       -1.9512908053
 C        -7.8253645166        5.1292646036       -5.7555798507
 C        -6.8097918289        7.3496006160       -6.2781642244
 H       -10.5766390073        8.0625060865       -5.2992949980
 H        -9.1085211450        8.5957009188       -6.2717900398
 H        -9.4002461109        9.3005054010       -4.6873391604
 H        -4.7920504534        7.4776224763       -4.2426930122
 H        -4.7671533978        6.1180604346       -5.5159534967
 H        -3.8139854682        6.0498277959       -2.6795273405
 H        -2.8928715688        5.8390986740       -4.0533470337
 H        -5.0633418269        5.4742722293       -0.1756502123
 H        -4.0314243488        4.0485184460        0.4151437140
 H        -5.6101657178        3.9205434535        2.1241601705
 H        -6.1137772579        2.7514062494        0.7425415778
 H        -8.0190368525        1.1112092823        0.9185772110
 H        -8.8500306130        1.3455861504       -0.5375449622
 H       -10.8728116770        0.6003851072        0.5949134796
 H       -10.5220179807        1.4363932408        2.1297052634
 H       -11.0113042591       -0.9969633866        4.4135955967
 H       -11.5907245249       -2.6512788340        4.5854107944
 H       -13.7589537500       -1.4860059479        5.3020855548
 H       -13.7743003267       -1.3925334243        3.4193564165
 H       -14.1201582553        1.8637183224        2.3392020471
 H       -13.3157178033        2.7077076658        3.6314882726
 H       -14.7422270823        4.8079268668        2.8903345726
 H       -15.8275684267        3.7398548344        2.1468617151
 H       -15.0912203308        8.1099394674        1.1866006872
 H       -13.5774797165        7.8253699001        2.2564471018
 H       -14.7691058964        6.7150256521        2.2874393343
 H       -12.2862969251        4.6670311880       -0.9902058801
 H       -13.2020103090        5.6984729306       -1.9733906658
 H       -13.7166712825        3.9588923347       -1.7317409857
 H       -16.0361934448        6.2314572444       -0.8578346960
 H       -16.0105203088        5.5321579258        0.8759341988
 H       -16.1922628456        4.4277463641       -0.5697905204
 H       -15.8402138239       -0.6189790710        4.1743072216
 H       -16.8352017927        0.4804235818        5.1453986951
 H       -15.6925920705       -0.9345210498        5.8610865700
 H       -13.3120107072        2.2251068234        6.2213974527
 H       -14.1560415201        0.8751735407        7.1750888433
 H       -15.1357468573        2.3935229604        6.7746828921
 H        -9.1222261043       -1.7303270717       -0.0441901254
 H       -10.9531277755       -1.9031549704       -0.0369611410
 H       -10.0300867696       -3.2971532863        0.2617754864
 H        -8.3604435994       -3.0709892960        2.8663865542
 H        -9.9829974013       -4.0238183165        2.7183724932
 H        -9.4784945498       -2.8131515998        4.0089733572
 H        -9.3827931733        2.9843100206        3.2678447658
 H        -8.1424378114        4.2143986232        3.6898171825
 H        -7.7509450782        2.7611494125        2.8557048918
 H        -9.9116097701        5.5855973629        0.5454807886
 H        -8.9796780401        6.3596607183        1.7746050558
 H       -10.3400296990        5.2784783201        2.2803208713
 H        -5.1939132556        1.5972304990       -3.2709638493
 H        -4.0160812301        1.1240241417       -1.9501914672
 H        -3.4243510125        1.6224908010       -3.4114697670
 H        -2.3469613614        4.3046293239       -1.1342165768
 H        -2.1160975469        3.9163606013       -2.8740767217
 H        -2.0698309384        2.7049439930       -1.4597935846
 H        -7.1909391397        4.3259802520       -5.4756971318
 H        -7.9567536556        5.1646943383       -6.8186374524
 H        -8.8086584101        4.9391735826       -5.3591309902
 H        -6.4729708153        8.3500751924       -5.9187726241
 H        -7.6080138374        7.8006087953       -6.9766327963
 H        -6.0576708392        6.8277830566       -6.8101018359
 Na       -8.6006198736        5.3070603558       -1.8970647542
