117

 C        -9.4434353857        8.3486671191       -5.3198738282
 C        -8.7355405387        7.0413152532       -4.6557764832
 O        -9.4676602608        6.4807941244       -3.8699295376
 C        -7.3835826237        6.4906734188       -5.1308862972
 C        -6.2402020076        6.4735682034       -4.1140558415
 O        -6.5159932593        6.1011048550       -2.9457365692
 C        -4.8336603948        6.6540749893       -4.6004318044
 C        -3.9408865400        5.5843732355       -3.8945859407
 C        -4.5027888499        4.0922956442       -3.8454245502
 O        -5.1275876926        3.5034675308       -4.6698789084
 C        -4.1059032871        3.1762684893       -2.4236567975
 C        -5.2244859036        3.4879648441       -1.4246324246
 O        -6.4068582968        3.6561464490       -1.8382020947
 C        -4.9051124410        4.1159116913       -0.1074281589
 C        -5.8583153031        3.8747553932        1.1449658358
 C        -7.2234009349        4.4957570085        0.8869364579
 O        -7.2554236564        5.5683517466        0.3301199496
 C        -8.5562972925        3.9730698483        1.6658584850
 C        -9.1519193525        3.0013072626        0.5593909867
 O        -9.5273525663        3.4638240432       -0.4965277983
 C        -8.9560359028        1.5370303186        0.7368303174
 C       -10.0007372150        0.7646931018        1.4954291742
 C        -9.2304761335       -0.5093441594        2.1801923398
 O        -8.1000214773       -0.3572317273        2.6237447062
 C       -10.0131318045       -1.8904473304        2.2253150435
 C       -11.6170589295       -1.5275579694        2.6478840906
 O       -12.4233518508       -1.3151675345        1.7418591073
 C       -11.9386588492       -1.4105727621        4.1167398584
 C       -13.4641731603       -1.1137258556        4.3764564427
 C       -13.6321176198        0.5024283124        4.4994752804
 O       -12.6279497271        1.0952224122        4.0629278827
 C       -14.8539111493        1.1716302441        5.1185920107
 C       -15.4720766156        2.2737164198        4.0615219659
 O       -16.5302200472        2.7195133855        4.3790074799
 C       -14.6132763583        2.9337412643        3.0147955654
 C       -14.9570092494        4.1669754801        2.2296697453
 C       -14.0370869123        4.0301773802        0.8123448117
 O       -13.3925744438        3.0226090987        0.6159051557
 C       -14.0815689363        5.1865366818       -0.1417465273
 C       -13.3610955392        6.5370333283        0.4621292046
 O       -12.2582242582        6.8372827968        0.1036938315
 C       -14.0749300414        7.3792845079        1.5624499911
 C       -13.4974767642        4.8758462468       -1.4970378732
 C       -15.6310098316        5.4892986966       -0.6012367990
 C       -16.0144579976        0.3068535563        5.5904733535
 C       -14.2793330735        1.7606941612        6.4729658279
 C       -10.1983068108       -2.4937060743        0.8257230382
 C        -9.0598515523       -2.6965884526        3.1877169480
 C        -8.2394855674        3.2735517931        2.9304820482
 C        -9.6588538446        5.0791146966        1.9624036523
 C        -4.2778549184        1.6996325002       -2.6758928229
 C        -2.7493150535        3.6828306447       -1.8379591670
 C        -7.7826241340        4.9960602017       -5.3456252218
 C        -7.1341270565        7.1231670455       -6.5063374342
 H       -10.2308364446        8.4992506644       -4.5309643301
 H        -9.9105619407        8.0218578861       -6.2155422483
 H        -8.6987449676        9.1446421428       -5.5527317919
 H        -4.3003267306        7.6120407068       -4.5170888171
 H        -4.8436425284        6.2475144034       -5.6056862801
 H        -3.6256203775        5.9815144456       -2.8628920298
 H        -2.9780917089        5.5652147614       -4.4338440070
 H        -5.0783066916        5.1310603747       -0.2804519942
 H        -3.9219995599        3.9137371157        0.3541426464
 H        -5.4868491534        4.3790532624        2.0683741367
 H        -6.1869540674        2.8949720944        1.3770504568
 H        -8.0383130517        1.2900468010        1.3831083633
 H        -8.6444611157        1.2134412271       -0.3360251437
 H       -10.6888962937        0.5252428079        0.7158401364
 H       -10.5200542424        1.2758474434        2.3020854741
 H       -11.2910406000       -0.6967246882        4.6697350343
 H       -11.7294869758       -2.3416113862        4.6546033753
 H       -13.6599533242       -1.6362597259        5.3214516450
 H       -14.1040011509       -1.3326928359        3.4698603078
 H       -14.2311966198        2.1102470249        2.3518687979
 H       -13.7623021731        3.1152494933        3.6627298681
 H       -14.6810453289        5.0609558858        2.8420107403
 H       -15.9999154264        4.5670373364        1.8893904753
 H       -14.0464924937        8.3667939614        1.0468999745
 H       -13.4623738083        7.4058787216        2.4539762200
 H       -15.0532979873        7.1460871497        1.9664544483
 H       -12.4593059421        4.5853646291       -1.2364167117
 H       -13.2879240134        5.7001551006       -2.2002484615
 H       -14.0361315573        4.0309203751       -1.7792149921
 H       -15.7391983036        6.1707783178       -1.4289555078
 H       -16.2931363275        5.7771199212        0.2286281278
 H       -15.8443461052        4.5436500748       -0.9102367675
 H       -16.5529943911       -0.1839239735        4.7079908569
 H       -16.6206708087        0.9239341101        6.1458684760
 H       -15.5722009614       -0.4460082073        6.1539642568
 H       -13.3227939628        2.0977818265        6.3276542346
 H       -14.2493834247        1.0083171069        7.2852886482
 H       -14.9878455456        2.4645657285        6.7147842712
 H        -9.7212542356       -3.3599357192        0.6149987655
 H        -9.9225466015       -1.7509859147        0.0556914927
 H       -11.2086908803       -2.5945260594        0.6399639825
 H        -8.0861472181       -2.9695430001        2.7075805607
 H        -9.6159861336       -3.5467176961        3.3175460585
 H        -8.8340805642       -2.2492482837        4.2009255153
 H        -9.1601140678        2.7022307481        3.1050542722
 H        -8.2243956215        4.0579617454        3.6630241735
 H        -7.3122717079        2.6048190202        3.0304156779
 H       -10.2259931839        5.4497701530        1.0387825892
 H        -9.2418922565        5.9519780905        2.3974796238
 H       -10.3539365248        4.7107373160        2.6783138949
 H        -5.2877534086        1.4966754877       -2.6651374114
 H        -3.8039892261        1.0522909828       -1.8824927716
 H        -3.8275488986        1.4212083946       -3.6308929569
 H        -2.6040089220        4.6815630376       -1.6325418569
 H        -1.9596349748        3.2752590659       -2.4386297138
 H        -2.6069797080        3.3554783657       -0.7686259270
 H        -6.8919170665        4.4104270540       -5.6256002388
 H        -8.4497374198        4.9582796937       -6.1980668330
 H        -8.1243627945        4.5695688784       -4.3984415130
 H        -7.2571179790        8.1691120751       -6.4339848190
 H        -7.8108207703        6.7879516657       -7.2509343635
 H        -6.1718872771        6.8323980519       -6.9613890045
 Na       -8.4394231636        5.2795046061       -1.7365252293
