117

 C        -9.1929976680        7.9348359244       -4.8394153976
 C        -8.8466361951        6.4325337114       -4.3647204765
 O        -9.2879654431        5.8934178256       -3.4066834426
 C        -7.6631669579        5.8171076885       -5.2159759250
 C        -6.3406709852        6.4130602196       -4.3813263253
 O        -6.4960754537        7.0091379751       -3.3134750195
 C        -5.0113187754        6.2092855714       -5.0291020683
 C        -4.1008441550        5.6318721331       -3.8689358008
 C        -4.2874029468        4.0824449244       -3.9275232371
 O        -4.4414378644        3.5624894899       -4.9851505568
 C        -4.1013904683        3.2765116775       -2.5457420530
 C        -5.1205078168        3.9089619753       -1.4774023297
 O        -6.2670547849        3.8701278035       -2.0104703560
 C        -4.7890676093        4.3249106677       -0.0532172960
 C        -5.8577329901        3.7027558192        0.9381775168
 C        -7.1858279733        4.5889181286        1.0967210206
 O        -7.3637322826        5.5670176601        0.4517631916
 C        -8.4980623903        3.7519457207        1.7342185499
 C        -9.0165712292        2.9229658175        0.4213075925
 O        -9.2367721165        3.4555277229       -0.6418267091
 C        -9.0190902562        1.3468449257        0.5952053015
 C        -9.9306971623        0.6676515598        1.6095633487
 C        -9.1169389122       -0.5072473913        2.3680266480
 O        -7.9187429037       -0.6175958882        2.5745027800
 C       -10.2002477434       -1.6626292809        2.7818429307
 C       -11.7249006194       -1.1901159176        2.9296227671
 O       -12.3694913808       -0.7172496174        2.0099264607
 C       -12.3504226124       -1.3864884408        4.2846657848
 C       -13.7519283747       -0.6238857589        4.4742129673
 C       -13.4977495495        0.8876269599        4.4544696992
 O       -12.3668967580        1.2894055785        4.2669136559
 C       -14.7207962604        1.6713274168        5.0190394552
 C       -15.3862809432        2.7144018218        4.1323204106
 O       -16.5683584062        2.8558167156        4.0514940018
 C       -14.5843341518        3.4116687264        3.0047085264
 C       -15.3674129716        3.9242934680        1.8475063408
 C       -14.3758554505        3.9839960905        0.6169666428
 O       -13.6900664851        3.0115550683        0.4660780031
 C       -14.3007023099        5.3035956302       -0.3494591887
 C       -13.2445097159        6.2508172993        0.4502271696
 O       -12.0297869696        6.1748856344        0.3083957733
 C       -13.6379843957        7.4758784717        1.3182980766
 C       -13.5075699672        4.7167866567       -1.8001113984
 C       -15.6529437165        5.9585358066       -0.6621579152
 C       -15.8697162372        0.7084864900        5.5591898207
 C       -14.4314992084        2.6415677176        6.2723612346
 C       -10.2269147430       -2.6551951453        1.4051720420
 C        -9.8469135326       -2.4795543400        4.0347946007
 C        -8.0270280465        3.0032930403        2.9143560392
 C        -9.6914942116        4.7032367560        2.0850559367
 C        -4.6206212093        1.7131684609       -2.8545725441
 C        -2.6442168409        3.3375446331       -1.9915339136
 C        -7.7181699213        4.3198144220       -5.2437701452
 C        -7.5713717280        6.4434992370       -6.6976623095
 H        -8.2878032509        8.2814065266       -5.3434697588
 H        -9.0341110142        8.4026672869       -3.8758153176
 H       -10.1908618372        8.0300964743       -5.3396748500
 H        -4.7653513045        7.1763618864       -5.3817412239
 H        -4.9742630632        5.5200347187       -5.8863202861
 H        -4.4928915483        5.9834996076       -2.8771529030
 H        -3.0436346961        5.8078946653       -3.7844883588
 H        -4.6393772067        5.3615698287       -0.1213473770
 H        -3.8310914895        3.8853289298        0.3771067083
 H        -5.5326508623        3.5878179081        1.9990523931
 H        -6.2279436205        2.7292713796        0.7309510138
 H        -7.8883518551        1.3393332857        0.8292355429
 H        -9.2743335046        1.0126660493       -0.4490064886
 H       -10.7135474397        0.2333484868        1.0132907711
 H       -10.3003563474        1.4397289607        2.2694435061
 H       -11.5123928822       -1.1007358503        5.0357411494
 H       -12.5497310703       -2.4795276008        4.5709303810
 H       -14.0764679669       -0.8390951565        5.5195922213
 H       -14.2972039376       -0.9576667405        3.5953176703
 H       -13.8119952372        2.6349843274        2.6775738854
 H       -14.1037783753        4.1996190341        3.5549749556
 H       -15.9615761943        4.8846833733        1.9761116420
 H       -16.2994614953        3.2875259200        1.6077230881
 H       -12.7430413451        7.4884502126        2.1283213048
 H       -14.5267945637        7.3005724616        1.9039797773
 H       -13.8424170663        8.4008706481        0.7813726438
 H       -12.5268718097        4.2092130254       -1.7392301337
 H       -13.3664897502        5.6785908208       -2.3161728368
 H       -14.2030562191        4.2825424751       -2.4244947684
 H       -15.4756310036        7.0255096035       -0.7090015544
 H       -16.4917651837        5.9194342836        0.0469313455
 H       -15.9159887844        5.5015288063       -1.6099992028
 H       -15.9745863393       -0.1714691574        4.9911156496
 H       -16.8172523305        1.2537068792        5.6491661768
 H       -15.4688937659        0.5233158821        6.5791803032
 H       -13.7936935529        3.3651725472        5.7978898963
 H       -13.7841633421        2.2800613185        7.1660373013
 H       -15.3973503287        3.0088216452        6.5360739346
 H       -11.1943071573       -2.8516979809        0.8773828156
 H        -9.7820776733       -3.6184489032        1.7004596021
 H        -9.5828918607       -2.1950559390        0.6534790930
 H        -8.7400545218       -2.7149396422        3.8564936446
 H       -10.3965268604       -3.4370546196        3.9722873946
 H        -9.9594752159       -2.0455841687        4.9453511467
 H        -8.7995382667        2.9097830181        3.6683479230
 H        -7.3052262782        3.4728608565        3.4263672532
 H        -7.6727275855        2.0237641214        2.5492528057
 H        -9.7138068904        5.2236313179        1.0530602699
 H        -9.6446372633        5.4899904475        2.8233092666
 H       -10.6948367893        4.2859583055        2.0468862099
 H        -5.3775176493        1.6425774894       -3.6326375928
 H        -5.0362116085        1.2639192865       -2.0225138035
 H        -3.8095890747        1.2573511009       -3.2234366502
 H        -2.6275104144        4.2631382986       -1.4842720929
 H        -1.8224467354        3.3111760413       -2.6642393629
 H        -2.3483295254        2.4263807411       -1.3252527784
 H        -7.3350780417        3.9307304703       -6.1436597756
 H        -8.7229993109        4.1248544776       -5.2465962511
 H        -7.1448225866        3.8610141916       -4.4805507592
 H        -6.9677561425        7.3495332061       -6.7298987524
 H        -8.5469977818        6.5127253233       -7.1868247244
 H        -7.1017501268        5.7680106629       -7.3361164186
 Na       -8.2085242295        5.1625045314       -1.7528772212
