117

 C        -9.3004237953        7.8562352652       -4.6138813023
 C        -8.8980875067        6.4459273948       -4.3990915930
 O        -9.5283475951        5.8174689298       -3.5457519810
 C        -7.6855628360        5.8356189460       -5.2183386191
 C        -6.4188456761        6.5288065673       -4.5246793309
 O        -6.5577623873        6.9599787205       -3.4018284994
 C        -4.9372039619        6.1850008875       -5.0071362442
 C        -4.0887432366        5.5787783004       -3.9240391772
 C        -4.1268373999        4.0238577928       -3.9396165744
 O        -4.2977283323        3.3732332029       -4.9814738210
 C        -3.9964082854        3.3425254022       -2.5761086815
 C        -5.1888040266        3.9049875282       -1.5534052512
 O        -6.2829146149        3.9547414394       -2.0188779577
 C        -4.9704796698        4.3821167908       -0.1343106759
 C        -5.7712540994        3.6670897587        0.9304791119
 C        -7.1928355129        4.4462801666        0.9968708624
 O        -7.1995370335        5.5475487485        0.4995367498
 C        -8.3950098268        3.7429621278        1.5447397710
 C        -8.8774151729        2.8286203108        0.4557519400
 O        -9.1832340895        3.2350142546       -0.6585672335
 C        -8.9698292432        1.2651096598        0.5746725664
 C        -9.8753795990        0.7015880551        1.7111423492
 C        -9.3116106962       -0.4811573849        2.3975026087
 O        -8.1497449826       -0.6463380510        2.6345662869
 C       -10.2917041478       -1.6945645255        2.7500268490
 C       -11.6357959005       -1.0496804082        3.0253937017
 O       -12.3331481388       -0.7372034087        2.0830212104
 C       -12.4786365318       -1.3368444273        4.3537947603
 C       -13.7358162662       -0.5442161953        4.4024895660
 C       -13.4453598486        0.9701700152        4.6228407610
 O       -12.4108734871        1.4976390391        4.3561206277
 C       -14.7388348944        1.8621236115        5.0662099723
 C       -15.5027415953        2.6995272741        3.8987236253
 O       -16.7102939467        2.9078935479        3.8852044096
 C       -14.5066983197        3.6084057881        2.9340881595
 C       -15.2593285590        3.9490044686        1.7193874758
 C       -14.3606328619        3.9809218522        0.5037234919
 O       -13.7096362470        2.9968867975        0.2346536867
 C       -14.2789341561        5.3497797460       -0.3582800672
 C       -13.1696978588        6.1983225700        0.3746230962
 O       -11.9663460899        5.8779927693        0.3311233109
 C       -13.6720191634        7.3796137503        1.2187538302
 C       -13.6496065501        4.8677062199       -1.6389867558
 C       -15.5766963605        5.9510369986       -0.5178308458
 C       -15.8329150175        0.9497944733        5.6028469999
 C       -14.2926419779        2.7909606994        6.3079140749
 C       -10.4071048665       -2.5920503631        1.6195747982
 C        -9.7303742388       -2.2118177086        4.0911453823
 C        -8.0786235283        2.8463230665        2.9035171817
 C        -9.5687247985        4.7106321087        1.9558417536
 C        -4.4745496833        1.9626912515       -2.8527872940
 C        -2.6343023942        3.1400177275       -1.9693227361
 C        -7.7224642214        4.2812065658       -5.1068354437
 C        -7.7117227562        6.1308488732       -6.7443725600
 H        -9.1857104813        8.1042895951       -5.6465760360
 H        -8.4496804448        8.4122630562       -4.0928295155
 H       -10.3393116320        7.8307223284       -4.2573751315
 H        -4.4480615618        7.0721318891       -5.4018123925
 H        -4.8548759973        5.4489516720       -5.9027610983
 H        -4.4976302270        5.8829067959       -2.9128103481
 H        -3.0335105400        5.9590837661       -3.9057842947
 H        -5.1235824883        5.5149092477       -0.2459597888
 H        -3.9653075357        4.3133596440        0.2003508481
 H        -5.4524313381        3.8306301136        1.9373529240
 H        -5.9497024134        2.5955063929        0.9047338029
 H        -7.8231407360        1.1048446652        0.6489131227
 H        -9.3986780461        1.0593199413       -0.3302501397
 H       -10.8115804387        0.4525048749        1.1872997836
 H       -10.0338260997        1.5173591506        2.4083270578
 H       -11.9497911682       -1.1672307628        5.2931130795
 H       -12.6915648062       -2.4310584999        4.4098474018
 H       -14.3837265148       -0.9530611260        5.2947957149
 H       -14.0470522597       -0.5862658216        3.3983843833
 H       -13.6023735772        2.9523926464        2.8000667502
 H       -14.2925333967        4.4643650533        3.5017102853
 H       -16.0286152444        4.8142647492        1.8272677758
 H       -16.0104809621        3.1932885776        1.5023786085
 H       -13.3711139404        7.1655391086        2.2371235592
 H       -14.7632175982        7.4146104560        1.2524737694
 H       -13.3598863954        8.3673401351        0.8532903743
 H       -12.9568460090        4.0601084113       -1.4158389480
 H       -13.1900709375        5.6492098711       -2.2376669017
 H       -14.4976976392        4.5517229035       -2.3301548814
 H       -15.6594076156        6.9886080452       -0.4174348276
 H       -16.2091533165        5.6046104891        0.2101932373
 H       -15.9933014609        5.5298803513       -1.4676201277
 H       -15.9827921157        0.3255423348        4.8045898789
 H       -16.7841330610        1.4391843340        5.8102581793
 H       -15.4860184853        0.4080975359        6.4744197583
 H       -13.3613437744        3.2347799491        5.9329239772
 H       -14.0615892136        2.2723045439        7.1575541773
 H       -15.0851337894        3.5200793868        6.4885207187
 H       -11.3512716524       -2.5553696140        1.0567492975
 H       -10.3226740537       -3.4855777787        2.0779105389
 H        -9.6798114535       -2.5178392261        0.8815052253
 H        -8.8151878182       -2.6461829223        3.8682152970
 H       -10.4359541902       -3.0387865585        4.4422968440
 H        -9.5809838301       -1.4057507001        4.8042850016
 H        -9.0310045512        2.4916244251        3.3608712616
 H        -7.7063075165        3.4531160724        3.7877410505
 H        -7.4155836746        2.0437712734        2.6476860815
 H       -10.1314718231        5.2039888729        1.2436392391
 H        -9.2561382686        5.4634736083        2.7214732877
 H       -10.3565839363        4.0359308363        2.3679023110
 H        -5.3385796915        2.0483903613       -3.5488160392
 H        -4.9108060360        1.5653398626       -1.9958261131
 H        -3.7181758282        1.3823953544       -3.4008388417
 H        -2.0992389404        4.1021247035       -1.8012942055
 H        -2.0148507559        2.6364728590       -2.6615944553
 H        -2.6465076877        2.4315634901       -1.2083382069
 H        -7.0584706325        3.8180132848       -5.7831545386
 H        -8.7433959004        4.0226901948       -5.3285326336
 H        -7.3890731125        4.0005488193       -4.1302216944
 H        -7.5679828206        7.1497319122       -7.0496113118
 H        -8.6929636268        5.7287089615       -7.0007871670
 H        -7.0215517718        5.5900399680       -7.3305385865
 Na       -8.0595992585        5.1227791102       -1.5276368058
