117

 C        -9.4288461503        7.6425776564       -4.6105039554
 C        -9.1166961460        6.1492384442       -4.2398561703
 O        -9.6492394815        5.5279159759       -3.4053967347
 C        -7.8480268345        5.5907197492       -5.0455077578
 C        -6.5577783436        6.1207766329       -4.2904048358
 O        -6.6154424426        6.7397198335       -3.2122795431
 C        -5.2551949116        5.8788854739       -5.0673097951
 C        -4.1259317262        5.4754238607       -3.9964037932
 C        -3.8398101746        3.8948571980       -4.0677257671
 O        -3.7276336954        3.2257266241       -5.0823076576
 C        -3.9673580066        3.1912223296       -2.6718715197
 C        -5.1276732603        4.0448242281       -1.6894142347
 O        -6.3093126618        4.1133308970       -2.0757583612
 C        -4.7862991525        4.4912084076       -0.2819030688
 C        -5.5541311889        3.7218592506        0.8181903588
 C        -6.9326050253        4.5236679027        0.8741737194
 O        -6.9611753775        5.6822620735        0.5478849207
 C        -8.1580530704        3.5760730029        1.4614035820
 C        -8.6211347061        2.6323789130        0.3597392444
 O        -8.7478301295        3.1747307217       -0.7269476475
 C        -8.8113092711        1.0672652552        0.4712985778
 C       -10.0628052865        0.4527474698        1.2109400309
 C        -9.5411850367       -0.5813414479        2.3707671566
 O        -8.4025725996       -0.3618510711        2.6912561117
 C       -10.4081243031       -1.6087181986        3.0519646333
 C       -11.9067059468       -1.0441354643        3.1756109631
 O       -12.4862908812       -0.6512319414        2.1863864438
 C       -12.6157240446       -0.9719657128        4.6964306055
 C       -14.0236382379       -0.1954787161        4.5276786447
 C       -13.7509673032        1.2541158640        4.8768944743
 O       -12.6982631906        1.6645756248        4.4870897390
 C       -14.9102793971        2.3625936471        5.3307379800
 C       -15.4122012764        2.8877148658        3.8916620597
 O       -16.5269147765        2.6780393782        3.4528643168
 C       -14.3868052095        3.5697771683        2.8149996031
 C       -15.1638343715        3.9493449533        1.6185980793
 C       -14.2732489932        3.9244993063        0.3650576304
 O       -13.8098381536        2.9490932466       -0.1532051553
 C       -14.1601734303        5.3883954623       -0.5618858728
 C       -13.1012632967        6.0677762199        0.4006932705
 O       -12.0211527295        5.4442729161        0.3775779268
 C       -13.4690902131        7.2742993913        1.2757803011
 C       -13.7421792645        5.2001716411       -1.9944701980
 C       -15.5587929556        6.1168322128       -0.6498670927
 C       -16.0473483986        1.7522446549        6.0689428345
 C       -14.3199402235        3.4768154878        6.2476549465
 C       -10.5066670494       -2.7992146710        2.0944293325
 C        -9.8149600858       -2.1254738055        4.4189728345
 C        -7.6226902654        2.8422382304        2.7501612165
 C        -9.4444999208        4.4405809395        1.8040305464
 C        -4.3711510689        1.7302912566       -2.7987060378
 C        -2.5174548083        3.2308191523       -2.0892449508
 C        -7.6456462483        4.0356328293       -4.8678004781
 C        -7.9432055992        5.8334261505       -6.5668717203
 H       -10.3050620372        8.0260143725       -4.1915924138
 H        -9.4300198427        7.6024498504       -5.7098708513
 H        -8.5092747010        8.0999183856       -4.2204785696
 H        -4.9579839471        6.8317450124       -5.2985183097
 H        -5.2614879267        5.3476665615       -6.0285460691
 H        -4.5414770006        5.8287918375       -3.0473036654
 H        -3.2754555544        6.0631042133       -4.1886905087
 H        -4.9168354353        5.5020445643       -0.0425417809
 H        -3.7169643420        4.3600190370       -0.1343695766
 H        -5.1972285470        3.7804839048        1.8654492820
 H        -5.9865718910        2.7613397618        0.7427183607
 H        -7.8998644279        0.7553829469        1.0971386260
 H        -8.9481499603        0.8162774597       -0.5551728126
 H       -10.6194076571       -0.0798642946        0.4638694367
 H       -10.6789966272        1.0494037846        1.8681700618
 H       -11.9984422823       -0.5483240093        5.5641002764
 H       -12.7416652319       -2.0878168450        4.8237704231
 H       -14.9560527654       -0.6067832150        5.1004245071
 H       -14.0498171371       -0.1128117528        3.4676199656
 H       -13.6274912978        2.7260421721        2.5420084827
 H       -13.9457506036        4.4175642392        3.2710404718
 H       -15.7360388208        4.9606412879        1.7133814597
 H       -15.8807323476        3.1308093112        1.3579638777
 H       -14.5389558929        7.1713302585        1.6615904869
 H       -13.6187963201        8.0992767771        0.5972700632
 H       -12.6340635433        7.5398306293        1.9454530821
 H       -12.7906295839        4.7203473660       -1.7479935348
 H       -13.7156420539        6.0965891207       -2.5982745130
 H       -14.2725799991        4.5182114945       -2.6121776001
 H       -15.9047241950        6.3601096395       -1.6977376518
 H       -15.7485123969        6.9774359441        0.0144138874
 H       -16.3558295866        5.3277041257       -0.3331644453
 H       -16.7801274949        1.2973196682        5.5256796595
 H       -16.5318770452        2.5736338415        6.7095720454
 H       -15.4918513998        1.1011413698        6.8517290165
 H       -13.5434806892        4.0515019238        5.6361212009
 H       -14.0214015169        3.1092754091        7.2460452062
 H       -15.1460097167        4.2339632195        6.4421244966
 H       -10.0895272306       -2.5602088940        0.9940649383
 H       -11.5257814255       -3.2201189733        2.1060696593
 H        -9.8540890995       -3.6740663335        2.4157104959
 H        -8.7505558919       -2.3286217266        4.4996867389
 H       -10.4868474889       -3.0013975912        4.7616966286
 H       -10.0399174999       -1.2926842672        4.9783968101
 H        -8.4564568533        2.5915433566        3.4151146003
 H        -7.0568509497        3.5543144725        3.2724959965
 H        -6.9735429102        1.9916266417        2.6046556227
 H       -10.0100190046        4.9535366009        1.0113838409
 H        -9.0914301635        5.2350438413        2.4961114423
 H       -10.3208111567        3.9232430679        2.2433519908
 H        -5.3511275447        1.5493279158       -2.2756438280
 H        -3.7304593669        1.1148245641       -2.2987553587
 H        -4.4797867408        1.5176593943       -3.8283006110
 H        -2.2242348781        4.2724156526       -1.8794398274
 H        -1.6565543720        2.9702266013       -2.7121651638
 H        -2.5857926521        2.4423103121       -1.3067902002
 H        -6.6089642396        3.8258989120       -4.5332131748
 H        -7.8814629336        3.5252405663       -5.8046245660
 H        -8.3540987336        3.6884559518       -4.0671583467
 H        -8.3372718804        6.8812399723       -6.7872652866
 H        -8.5318321431        5.0951462927       -7.1986939733
 H        -6.9870378036        6.0301466350       -6.8774353908
 Na       -8.3058707895        5.3824911326       -1.6716816320
