117

 C        -9.8312160168        7.2658527217       -4.6908959889
 C        -9.2768093465        5.9360995776       -4.1108432150
 O        -9.7416367419        5.2754608027       -3.2536042438
 C        -8.1005804332        5.2382987354       -4.9292882056
 C        -6.6985116255        5.7056140882       -4.1918351458
 O        -6.6340576613        6.1464671291       -3.0650124370
 C        -5.3298984463        5.7870537679       -4.9414551358
 C        -4.0275504649        5.5158703003       -4.2196601798
 C        -3.8125715502        3.9268162539       -4.1310306002
 O        -3.6829660482        3.3201460724       -5.1673544878
 C        -3.7573736140        3.2255629936       -2.5881666042
 C        -4.8813665009        3.9275025892       -1.6998394044
 O        -6.0621426898        3.9216274134       -2.1237100843
 C        -4.6121943129        4.4300534926       -0.3034151154
 C        -5.4673890019        3.9895673016        0.8276906516
 C        -6.9556439635        4.3511913443        0.7859629387
 O        -7.3041612981        5.4342149580        0.3708587749
 C        -8.0006713742        3.3431024992        1.3805347698
 C        -8.4829516079        2.3853607380        0.1670134965
 O        -8.5795169284        2.9709031740       -0.8957557900
 C        -8.5110850756        0.8377124349        0.4417591242
 C        -9.8713599359        0.3951086329        1.1303790014
 C        -9.5630076901       -0.3059667429        2.5532576254
 O        -8.4583695700       -0.2015187549        3.0567481230
 C       -10.6765728520       -1.2692841142        3.1873196829
 C       -12.2042836496       -0.6427831184        3.3091338149
 O       -12.9013332944       -0.4916506912        2.3243937046
 C       -12.8044042982       -0.6838609536        4.6785916192
 C       -14.0285812325        0.1977851537        5.0526786682
 C       -13.5994423505        1.7143031424        5.0302090583
 O       -12.4226395822        2.0245866954        4.8838535762
 C       -14.8678688453        2.7306026438        5.1253535405
 C       -15.5421804743        2.7841485006        3.6323048912
 O       -16.6998012219        2.5122171895        3.4161716338
 C       -14.5618407365        3.0454583613        2.4590507469
 C       -15.3202973844        3.9648591746        1.4595052873
 C       -14.4081411825        4.0083014517        0.2098503630
 O       -14.0895634300        2.9381500846       -0.2423656750
 C       -14.1687312512        5.4547230983       -0.5856591260
 C       -13.0112295376        6.0857672319        0.2877470207
 O       -11.8874296255        5.6024850986        0.3415580683
 C       -13.2771297244        7.2619647153        1.3397087452
 C       -13.5389646206        5.1630317771       -1.9424071721
 C       -15.3624796677        6.2803092011       -0.8188594483
 C       -15.9628121256        2.2382213381        6.0599600243
 C       -14.2347194426        4.1580649853        5.5027813923
 C       -10.7657341087       -2.5182776047        2.3532123868
 C       -10.1251041897       -1.6195062726        4.5888463350
 C        -7.4018653248        2.5703852959        2.5658828407
 C        -9.1880424032        4.3381830231        1.9061275220
 C        -4.1618455652        1.7723129618       -2.7747744559
 C        -2.2379488090        3.3060260363       -2.1752860034
 C        -8.2653810351        3.7250348607       -4.7691152314
 C        -7.9155654027        5.5971991784       -6.4392554611
 H        -8.9445072029        7.7590804456       -5.0386929613
 H       -10.3777765506        7.7180252444       -3.8917073030
 H       -10.4331742260        6.9438351688       -5.5304979924
 H        -5.3668144239        6.8550532127       -5.3612355748
 H        -5.3398664124        5.2024468774       -5.8840022016
 H        -4.1268875662        6.0096560992       -3.2200574204
 H        -3.1247296929        5.7892731640       -4.7884204896
 H        -4.4224274970        5.5009439148       -0.4637952429
 H        -3.6050045262        4.0854719399        0.1891948123
 H        -5.0730050924        4.4590106140        1.7880989319
 H        -5.4164494844        2.9058332565        0.9858296362
 H        -7.7624305738        0.6137565798        1.1224311250
 H        -8.3967245107        0.4013642022       -0.5901774588
 H       -10.5667030934       -0.3149800697        0.6850505855
 H       -10.3831466197        1.3658005252        1.3536042450
 H       -12.0676023904       -0.5841014163        5.4357099247
 H       -13.2156578293       -1.6259184482        4.7325335973
 H       -14.2148599042       -0.1823995800        6.0565459303
 H       -14.9112835405        0.0159018645        4.4034545718
 H       -14.2025760927        2.1509917326        1.9908761221
 H       -13.7458986185        3.6540684935        2.8610190575
 H       -15.2720543686        4.9433655072        1.7970805725
 H       -16.2269440289        3.6179334879        1.0721343934
 H       -14.3816218648        7.5405078405        1.4583842375
 H       -12.9419459336        8.1534939528        0.9597736550
 H       -12.8215045546        7.0312095907        2.2918975074
 H       -12.5132719733        4.7030492033       -1.8355335400
 H       -13.6298575427        6.1174373169       -2.5285606621
 H       -14.0884632419        4.4804611009       -2.5257541698
 H       -16.2753494220        5.7865356010       -0.9486553785
 H       -15.1185415650        6.9068656803       -1.6346435834
 H       -15.4503929560        7.0463116350       -0.0596690209
 H       -16.1730414642        1.2586720904        5.9703154629
 H       -16.8470507143        2.8279265545        5.8187305547
 H       -15.6540328349        2.4483595156        7.1179330398
 H       -13.4300647195        4.3625889505        4.8002216901
 H       -13.8370134654        3.9974542606        6.5249669307
 H       -14.7829746598        5.0507477175        5.5073023197
 H        -9.9479134365       -2.4232692784        1.5848164970
 H       -11.6281415467       -2.5021262763        1.7667068345
 H       -10.7691515064       -3.4124614179        2.8666786038
 H        -9.3435791828       -2.3871165234        4.2938323866
 H       -10.8544159236       -2.1567168995        5.2355598247
 H        -9.6073500308       -0.8548941483        4.9881405050
 H        -8.1495119466        1.7311086399        2.7134496752
 H        -7.2484879474        3.1007586966        3.4681149491
 H        -6.4049732473        2.0148449368        2.4582189378
 H        -9.3036657963        5.1597785811        1.1496363232
 H        -9.1562616395        4.8604661666        2.8122516658
 H       -10.1555924578        3.8939514366        1.8611728938
 H        -5.2861574506        1.5757361196       -2.4275796460
 H        -3.4726165543        1.0794782124       -2.2791461252
 H        -4.0698660199        1.5360053138       -3.8728150490
 H        -1.9197413367        4.3367332321       -2.3938367545
 H        -1.6330416930        2.7463889284       -2.8759523301
 H        -2.0685674982        3.1076075469       -1.0362193864
 H        -7.3264562466        3.1894607087       -4.5118751574
 H        -8.6542419764        3.2918409005       -5.6671559567
 H        -9.1055360622        3.5585604778       -4.0952131739
 H        -7.0462280115        6.2754601809       -6.5840388494
 H        -8.8040227566        6.1800910560       -6.7967953541
 H        -7.7349535070        4.7499170778       -7.0029431100
 Na       -8.0970533288        5.1700176272       -1.5276938106
