117

 C       -10.3325815712        6.8302367981       -4.9328083315
 C        -9.3280238958        5.8478982349       -4.2106340789
 O        -9.4492835982        5.6122152555       -3.0576279561
 C        -8.3092603597        5.0499093096       -5.0768179481
 C        -6.9082471795        5.6075258852       -4.2790352508
 O        -6.8427406165        5.9451507409       -3.0696519277
 C        -5.5519819939        5.5311179440       -5.0239637931
 C        -4.3862792305        5.4835126780       -4.1321263804
 C        -3.9372439682        3.8911585338       -4.0908932678
 O        -3.9599224629        3.1688846999       -5.0651017613
 C        -3.6881745708        3.3317007806       -2.6524746518
 C        -4.8574283832        3.5844639306       -1.6398850111
 O        -5.9398591676        2.9696064116       -1.8743822017
 C        -4.5602893878        4.3810312629       -0.3856375712
 C        -5.2307194767        3.7540961859        0.8987615116
 C        -6.8392968974        4.0321296762        0.7824329069
 O        -7.1370437160        5.1268680435        0.2968785710
 C        -7.8028231343        3.1413967580        1.4286628141
 C        -8.3265739391        2.0222268145        0.3256908152
 O        -8.5595901956        2.3965153928       -0.7789049847
 C        -8.7256035924        0.5296357472        0.5800741379
 C       -10.0175428890        0.5363971641        1.4678100923
 C        -9.7239555823       -0.0099962230        2.8030338268
 O        -8.8514495400        0.3616121888        3.5514725517
 C       -10.7853377719       -1.1230567877        3.3808191052
 C       -12.0256736544       -0.2693988225        3.6207526941
 O       -12.3358635420        0.5471031121        2.7882125491
 C       -12.7476677931       -0.2168624189        5.0820317058
 C       -13.9419893321        0.6692371812        5.1018122280
 C       -13.7209071712        2.1926646517        5.0252707810
 O       -12.6533622766        2.6634605994        5.2689190934
 C       -14.8696413676        3.1718841753        4.7350695490
 C       -15.7418853896        2.7169649065        3.4457512003
 O       -16.9225796627        2.4981327741        3.6463013035
 C       -14.9667794390        2.6797366516        2.0478916232
 C       -15.0448812815        4.0775655863        1.3880461431
 C       -14.5300358830        3.9612626651       -0.0473913141
 O       -14.3262193392        2.9852245943       -0.7016473977
 C       -13.8372065408        5.4386897507       -0.6543452652
 C       -12.8383168545        6.0647954667        0.3452968531
 O       -11.6299468641        5.8369443579        0.2282419387
 C       -13.2762680264        7.0922611274        1.3780663064
 C       -13.1856220769        5.3633849129       -2.0737414731
 C       -15.1856217233        6.4343719324       -0.9910844967
 C       -15.6882039669        3.2287394842        6.0605213140
 C       -14.2135532615        4.5899826025        4.5170848359
 C       -11.2901671630       -2.2749121061        2.2600177335
 C       -10.1995945035       -1.9334080283        4.6528631755
 C        -7.0741554438        2.4057025190        2.5139794147
 C        -8.9301723038        4.0683119893        1.8247729293
 C        -3.4583113257        1.7974326340       -2.7175889122
 C        -2.3269075039        3.8830915016       -2.2171986108
 C        -8.2152523666        3.5194024773       -4.6851582604
 C        -8.3343306966        5.2242310465       -6.5688551092
 H       -11.1564108346        6.2188075178       -4.7619987375
 H       -10.1179896686        6.8107592443       -5.9997894644
 H       -10.3268828253        7.7631397310       -4.3315238298
 H        -5.4258767475        6.4781930774       -5.6483838653
 H        -5.4645212296        4.6925457664       -5.8215028070
 H        -4.7972059694        5.5802070975       -3.0778923447
 H        -3.6605172316        6.2636068880       -4.4626007556
 H        -5.0146267917        5.3994993460       -0.3795139187
 H        -3.4481559995        4.6031173455       -0.2567951511
 H        -4.8399079333        4.1418376461        1.8882160946
 H        -5.0494320712        2.6883026350        0.7325260498
 H        -7.9016148161        0.0064677251        1.0451413317
 H        -9.0776149228       -0.0538631597       -0.2618527652
 H       -10.8684407759        0.1747075006        0.8754077323
 H       -10.4166175984        1.5607846716        1.7454517994
 H       -11.9756733717        0.1746911967        5.7830797258
 H       -13.1204092097       -1.1528680072        5.4122237487
 H       -14.6832754491        0.4563811314        5.9240549263
 H       -14.5200185180        0.2903543679        4.2570970772
 H       -15.4859287212        1.9080769416        1.4500980135
 H       -13.9622341581        2.3041770894        2.2132158198
 H       -14.3073597660        4.7471387768        1.7875606232
 H       -16.0718835624        4.3208545165        1.4792590747
 H       -13.7309063604        6.5130450930        2.1708673613
 H       -14.1097327909        7.5466991307        0.9051237801
 H       -12.5372713238        7.7258781371        1.9102703985
 H       -12.3285742003        4.7144637032       -1.8384873424
 H       -12.7521108817        6.2773878598       -2.4515557006
 H       -13.7250306944        4.7218044163       -2.7145067899
 H       -15.9890496995        6.4665359278       -0.2954489798
 H       -15.5867066934        5.9720943705       -1.8558232571
 H       -14.9144944544        7.4525349490       -1.3537148577
 H       -16.3969437432        2.4741086842        6.0990288688
 H       -16.0831814966        4.2123280071        6.1664169623
 H       -15.0417330672        3.0218144712        6.9207605890
 H       -13.6032256717        4.4420171842        3.6131410416
 H       -13.4855555751        4.8224167312        5.2273276210
 H       -14.7996190661        5.4557766887        4.3868197692
 H       -10.6984309319       -3.1806169207        2.4925730042
 H       -10.9892022025       -2.1031147207        1.3082597198
 H       -12.2792162010       -2.4569368160        2.4076654441
 H        -9.1916207597       -1.7909529443        4.7805017914
 H       -10.4950676219       -3.0012106833        4.5654640218
 H       -10.8352503548       -1.5496082579        5.4754910606
 H        -7.7115335531        1.8827010252        3.3107816053
 H        -6.3177383345        2.9834625141        3.0591537325
 H        -6.4812409955        1.5166340132        2.1967351136
 H        -9.4935182477        4.5440297075        1.0604589429
 H        -8.5747633675        4.9515337481        2.3357979008
 H        -9.6509448656        3.6678014023        2.5405118929
 H        -2.9235609587        1.6088226363       -3.6600433365
 H        -4.2916940535        1.1971812518       -2.5409660883
 H        -2.8506310547        1.4102626350       -1.8481572808
 H        -2.2717045205        4.7832472842       -1.6715551812
 H        -1.8459265014        3.6825057675       -3.1756023942
 H        -1.8645440996        3.3248204496       -1.4862952140
 H        -8.7366478997        2.9395627361       -5.4100894087
 H        -8.6741011224        3.3120652737       -3.7665036937
 H        -7.1857836686        3.2231044290       -4.5606245820
 H        -9.2902851491        5.6055066051       -6.9037828009
 H        -8.1750743488        4.2519217730       -7.0214938331
 H        -7.5593728403        5.7904717290       -6.8715492295
 Na       -7.9072393574        4.3453547421       -1.7431901536
