117

 C       -10.7127517444        6.3423068201       -4.9328248947
 C        -9.5394353229        5.5437715720       -4.3300292039
 O        -9.6325451991        5.4066104796       -3.1465673594
 C        -8.3768053833        4.8669531142       -5.0802924682
 C        -6.9045437288        5.4512978576       -4.4597460970
 O        -6.7378493697        5.6628384178       -3.2271402218
 C        -5.6766662349        5.2915904510       -5.3738062678
 C        -4.3608905021        5.2171072576       -4.6625379831
 C        -4.0470428410        3.6632932275       -4.1677393476
 O        -4.5253546084        2.8301947625       -4.9331046570
 C        -3.2298394173        3.4149677642       -2.8394629391
 C        -4.4545860811        3.4935708032       -1.6960959678
 O        -5.5593432206        3.0725551110       -2.1061036389
 C        -4.3039564320        4.1791741439       -0.3812928347
 C        -5.1665677060        3.5536618524        0.8250622569
 C        -6.7184633584        3.8618110314        0.7387428004
 O        -7.1714014168        4.8848618424        0.2165715822
 C        -7.6150607251        3.0047049000        1.5953420932
 C        -8.1940741719        1.9077520326        0.7152564152
 O        -8.4919090105        2.2183745328       -0.4133155192
 C        -8.5092593553        0.4953069718        1.0672172576
 C        -9.9179895931        0.2754761097        1.8016431788
 C        -9.8780364837       -0.3336401301        3.2139910999
 O        -8.8722558687       -0.2047228063        3.8514121576
 C       -11.2432864276       -0.9880103406        3.7380502971
 C       -12.2961984320        0.1644495954        4.0703226733
 O       -12.5330387659        0.9825269031        3.2138803713
 C       -13.1166031525        0.2143165040        5.4607126950
 C       -14.1986421567        1.1916067752        5.2988994542
 C       -13.7753232507        2.6942264796        4.9442912040
 O       -12.7004091809        3.0848687557        5.3114226715
 C       -14.8814347624        3.7614650900        4.4628915325
 C       -15.4940597906        2.9135976557        3.2906493539
 O       -16.6075376038        2.4593664353        3.5130177506
 C       -14.8954736531        2.7291933694        1.9695964442
 C       -15.0803703931        4.0826567703        1.1636510219
 C       -14.2904077997        4.0471679626       -0.2143332394
 O       -14.3568634851        3.0265989391       -0.7819216165
 C       -13.7832280000        5.4834254300       -0.7492042794
 C       -12.8095477754        5.9504307720        0.3221013516
 O       -11.6078946161        5.6028850702        0.2213794078
 C       -13.2413376665        7.1363498885        1.2571717726
 C       -12.9397404315        5.2878459075       -2.1052613007
 C       -14.9355495927        6.3916834601       -1.0518275312
 C       -15.7699900514        4.0279408917        5.7257918589
 C       -14.1003662294        4.9831409901        4.1362503380
 C       -11.8732706480       -1.6499141194        2.5972169241
 C       -10.9538334416       -1.9307772187        4.9968487414
 C        -6.8182000237        2.4228706901        2.9000057156
 C        -8.8830290592        3.7808853005        1.8628400581
 C        -2.6282215570        2.0102456572       -2.9443333073
 C        -2.0235530444        4.4242254296       -2.5588613746
 C        -8.2375812956        3.2902653831       -4.7408422805
 C        -8.4213188066        5.1204049895       -6.6550740928
 H       -11.1596583273        6.6841173272       -4.0339540423
 H       -11.3668403613        5.4900099332       -5.2491240660
 H       -10.2848951312        7.0874972124       -5.6520289184
 H        -5.6706924103        6.1147338366       -6.0841983747
 H        -6.0050734945        4.3411108576       -5.9633490119
 H        -4.4045473792        5.9506396429       -3.7834533201
 H        -3.5635597140        5.5644599402       -5.3207761453
 H        -4.6344697471        5.2270680250       -0.4555857821
 H        -3.2968668063        4.1615406278        0.0444999104
 H        -4.9072497849        3.9406140535        1.8505866275
 H        -4.9553657791        2.5156817126        0.7302484429
 H        -7.9059392667       -0.2210755750        1.6247084948
 H        -8.4535779942        0.0726585304        0.1533150749
 H       -10.6950809537       -0.1181846332        1.1312334395
 H       -10.2533549001        1.3395685253        1.7827492932
 H       -12.5535568098        0.6023740227        6.3970419744
 H       -13.5592239681       -0.7679911389        5.6832594771
 H       -14.9883168748        1.1490621656        6.0925317177
 H       -14.9242941804        0.9077490620        4.5925450692
 H       -15.6211350760        1.8639301852        1.6331751881
 H       -13.8885182046        2.3490054619        1.9795719442
 H       -14.6662951765        4.9550444759        1.7736864938
 H       -16.1409839967        4.2640304443        1.0250133815
 H       -12.3815224179        7.3187502576        1.7839073111
 H       -14.0401711637        6.7927530765        1.9582700036
 H       -13.6831980909        8.1401279374        0.8430313486
 H       -11.9432161222        4.9214298891       -2.2255739613
 H       -12.8647130056        6.3176857719       -2.3851442547
 H       -13.6552813359        4.8214636668       -2.7968866094
 H       -15.6582472807        6.4852734404       -0.2269090527
 H       -15.5905876491        5.9095320898       -1.7503505912
 H       -14.5669575981        7.4619689889       -1.3070130822
 H       -16.0425716274        3.1373481638        6.4011422997
 H       -16.6607781463        4.4977441108        5.3700144684
 H       -15.3342391183        4.7781751773        6.3196070063
 H       -13.3096773479        4.7728650101        3.3696840340
 H       -13.4944774043        5.3559836827        4.8518642933
 H       -14.7078262124        5.8452577144        3.8701701372
 H       -11.1052342515       -1.7101716485        1.8520868012
 H       -12.6304370296       -0.9497048227        2.1902780457
 H       -12.1992895592       -2.6793875307        2.8165909774
 H       -10.3942810597       -1.4836204901        5.7062345902
 H       -10.5278585288       -2.8711713007        4.6555410308
 H       -11.9994388152       -2.3516347020        5.3125363992
 H        -7.4920578557        2.0090622177        3.6562756848
 H        -6.2555093997        3.1017585311        3.6070967569
 H        -6.1917488874        1.6194081637        2.6238591094
 H        -9.4415920243        4.0961338951        1.0369555644
 H        -8.8283786022        4.6825770715        2.5396092809
 H        -9.6078734686        3.1962930828        2.4837490328
 H        -2.8533737614        1.5047692783       -2.0844639496
 H        -1.5973515585        1.9352216813       -3.1893034065
 H        -3.1300461721        1.5029496151       -3.7838975456
 H        -2.2918685392        5.1913495260       -1.8471798170
 H        -1.5524334675        4.6350683497       -3.5246036183
 H        -1.2790036846        3.8626508046       -2.1296935311
 H        -8.8436587347        3.0405922810       -3.8738960138
 H        -7.2717206337        3.0842760244       -4.2513842622
 H        -8.3877618961        2.5421724102       -5.5408083023
 H        -8.3297811402        4.1423599893       -7.0707302654
 H        -7.6105048443        5.7169132844       -7.0585918990
 H        -9.3856728820        5.5361769113       -7.0265418353
 Na       -8.0374459172        4.0915575598       -1.9561333461
