117

 C       -10.8093251121        6.3419397358       -4.9224774090
 C        -9.6280594771        5.4469093930       -4.2801528400
 O        -9.5669420756        5.2558228638       -3.0904057400
 C        -8.2937846301        4.8280350155       -5.1283501316
 C        -6.9936444335        5.2692689031       -4.5730486275
 O        -6.8564839768        5.4918305685       -3.3941721819
 C        -5.7477341668        5.2071665651       -5.4932815019
 C        -4.3744170884        5.1670226924       -4.8418020005
 C        -4.0993536881        3.7671250828       -4.2012408690
 O        -4.5671017548        2.8117183086       -4.6881736906
 C        -3.1766654789        3.3910143894       -2.9474376021
 C        -4.3584306979        3.5601612246       -1.8223281483
 O        -5.4449452920        3.2326201259       -2.2006118624
 C        -4.2430575670        4.1478343388       -0.3883453925
 C        -5.0276567932        3.5121244116        0.7055682531
 C        -6.5060955742        3.9019245964        0.8374439071
 O        -6.9599141086        4.8335566200        0.2145675298
 C        -7.6093406320        2.9745994151        1.6335168212
 C        -8.2006164476        1.7374934960        0.7285243150
 O        -8.5019492425        2.0920528476       -0.4180975182
 C        -8.5594225659        0.4366881582        1.3792529100
 C       -10.0352527465        0.3504884825        1.8305989887
 C        -9.9864999302       -0.3198955299        3.2087401242
 O        -8.9111531901       -0.5141636129        3.7629940141
 C       -11.3654333787       -0.9142393185        3.8176974249
 C       -12.2860072075        0.2795840232        4.1985527833
 O       -12.6177564347        1.0487041272        3.3061005076
 C       -13.0950414994        0.2945992943        5.4466107024
 C       -14.2421062915        1.3650686076        5.4086671783
 C       -13.7718359565        2.7538546723        5.1619948632
 O       -12.6056920605        3.1321003038        5.3469359484
 C       -14.8092978616        3.8381697329        4.5196762246
 C       -15.6510501558        2.9639218749        3.2680975331
 O       -16.6886829774        2.3696729131        3.4324313327
 C       -14.7279804597        2.8613197644        1.9932915490
 C       -15.1507701646        4.0838461399        1.1014287341
 C       -14.3569478709        4.0819187595       -0.2623120463
 O       -14.1874067096        3.0427594346       -0.8800033176
 C       -13.8002457197        5.4817362746       -0.8910076926
 C       -12.7073048277        6.0131746733        0.1467632405
 O       -11.6301389069        5.4926165121        0.3536495689
 C       -13.2083516373        7.1568276604        1.0939860975
 C       -12.9628017563        5.2464659146       -2.1299995379
 C       -14.8695610575        6.4921306093       -1.0631478463
 C       -15.8179961657        4.2331837756        5.7090332545
 C       -14.0440692800        5.1213742182        4.0443489418
 C       -12.0820175976       -1.6744184432        2.6077178868
 C       -11.0085368782       -1.7804123232        5.0618381777
 C        -6.9587827046        2.5102542995        2.9652305077
 C        -8.8100204298        3.8937067791        2.0211324287
 C        -2.6491242638        1.9661953020       -2.9616936452
 C        -2.2129279230        4.5751919493       -2.6029783269
 C        -8.1222392179        3.3434708181       -4.8556193937
 C        -8.3270654637        5.0051685402       -6.7144586918
 H       -11.2793511242        6.7334928006       -4.0038407863
 H       -11.4821527548        5.6266545805       -5.3615718197
 H       -10.2816808242        7.0520453498       -5.4844134728
 H        -5.8127510734        5.9422855210       -6.3398158467
 H        -5.8892631346        4.1577001418       -5.9693310971
 H        -4.2186269615        5.8036890990       -3.8966936729
 H        -3.6141300936        5.4928937172       -5.5694130275
 H        -4.7024170103        5.2130350521       -0.4172320327
 H        -3.2863760871        4.2407805115        0.1096830046
 H        -4.5614868038        3.7929463237        1.6711661353
 H        -4.8524638512        2.4318702721        0.5519529618
 H        -8.0394331401        0.1407430888        2.2699448797
 H        -8.2284986513       -0.3907029897        0.8059208569
 H       -10.6707841781       -0.2605187674        1.1420913292
 H       -10.4211995023        1.3367422647        1.6499291368
 H       -12.4561159307        0.5125387412        6.2652777592
 H       -13.5124869633       -0.7172914006        5.5784626925
 H       -14.9967120346        1.2095750249        6.2324660178
 H       -14.9962582201        1.2397990658        4.6861040321
 H       -14.8561976993        1.9168861762        1.3797416830
 H       -13.7445453352        2.9283551353        2.3910063811
 H       -15.0591830413        5.0418932043        1.5630557512
 H       -16.1711299015        3.9831523230        0.9442206963
 H       -12.4012025363        7.6826277891        1.6065480269
 H       -13.8258495326        6.6208891423        1.8102104672
 H       -13.9037271763        7.8490729255        0.7321529770
 H       -12.1435559369        4.5933268263       -1.9849819971
 H       -12.5132791762        6.1674061750       -2.4006182574
 H       -13.6113085356        4.8438912163       -2.9543005908
 H       -15.6078022019        6.3538935201       -0.2872930738
 H       -15.5021338292        6.3114180101       -1.9193862787
 H       -14.5336028752        7.4952631129       -0.9974252461
 H       -16.1769634315        3.2568319953        6.1598812009
 H       -16.6861043479        4.7190453021        5.3510736757
 H       -15.4155574850        4.8405520844        6.4533160699
 H       -13.6575375913        5.0534211898        3.1025761824
 H       -13.1868309169        5.5004380297        4.5941447302
 H       -14.7230150982        5.9344751261        4.0817214629
 H       -11.3679900941       -2.2194393551        2.1228396080
 H       -12.5874357830       -0.9160378195        2.0157977175
 H       -12.7489928507       -2.3612758638        3.0750278344
 H       -10.9948669458       -1.1454261341        6.0586689751
 H       -10.1273243838       -2.3439062451        4.9846766528
 H       -11.7742759826       -2.5193542535        5.0495008399
 H        -7.6584127009        2.1113016684        3.7143884474
 H        -6.7035308962        3.4344149303        3.5927996659
 H        -6.0705954633        1.8273262069        2.9171962657
 H        -9.5805289713        4.0577506590        1.2781595797
 H        -8.5251161897        4.8733786919        2.4074186019
 H        -9.3771440403        3.5699415346        2.8603261032
 H        -3.3790745126        1.3043463949       -2.4772407486
 H        -1.5790510326        1.8646274646       -2.5809544702
 H        -2.6072015857        1.5854564160       -3.9940241641
 H        -2.7180012768        5.3358465445       -2.0085682472
 H        -1.9394164054        4.8816677604       -3.5772157469
 H        -1.2649438137        4.1715687874       -2.2562929860
 H        -8.4625472834        3.1212028089       -3.8811862358
 H        -7.0780574281        3.1101303649       -4.6553837002
 H        -8.5409759930        2.6451186914       -5.5303950302
 H        -7.7979549638        4.1821458300       -7.0582267156
 H        -7.8301472324        5.8625232176       -7.0727892176
 H        -9.3433085097        4.9634327668       -7.2043890979
 Na       -8.0116665213        3.8912601329       -1.7732980180
