117

 C       -10.5225490072        6.1509575550       -4.9452053113
 C        -9.4506946009        5.3304542955       -4.3221387494
 O        -9.5366667186        5.0405701024       -3.1159163574
 C        -8.3136923827        4.6985083720       -5.1633435418
 C        -6.9603925689        5.2094979271       -4.5753220969
 O        -6.8503757029        5.4147733854       -3.4256020107
 C        -5.6752754091        5.1651234920       -5.5883946893
 C        -4.3714739139        5.0782652474       -4.8035389073
 C        -4.1406268471        3.7133688100       -4.2685928082
 O        -4.6968836863        2.7127964770       -4.7022143784
 C        -3.3314101907        3.5717574422       -2.9280949654
 C        -4.5073440179        3.6514777906       -1.8567130509
 O        -5.6198583450        3.2666207638       -2.1784589197
 C        -4.1065046221        4.1484932727       -0.4448285385
 C        -4.9674546104        3.3292640134        0.6957585323
 C        -6.4639482531        3.7869572946        0.7496176514
 O        -6.7635081440        4.7886428412        0.1640497278
 C        -7.5621981561        3.0686779602        1.7373016682
 C        -8.2326710257        1.8501032219        0.7759893268
 O        -8.4784863866        1.8547058226       -0.4429899758
 C        -8.4778461445        0.6310825429        1.4953643001
 C        -9.9767150147        0.3982285463        1.9587347305
 C       -10.0799591957       -0.4409838446        3.1762804550
 O        -9.0785265297       -0.7674786686        3.8033987282
 C       -11.4801416909       -0.8502044045        3.8445400754
 C       -12.4731098598        0.3881026738        4.1452659609
 O       -12.5910127263        1.2188710434        3.2548034491
 C       -13.1009903707        0.3930963232        5.6058513433
 C       -14.2699765216        1.4732439319        5.5284318130
 C       -13.7252166907        2.8366026674        5.2084460797
 O       -12.5964426411        3.1809933716        5.4115136939
 C       -14.8543838510        3.7535443487        4.5521888660
 C       -15.5023198628        3.1023480116        3.4624842891
 O       -16.5764504359        2.5129814349        3.4311836407
 C       -14.6898059838        3.1473622113        1.9469419283
 C       -15.2014745196        4.0808797388        0.8724980020
 C       -14.3389954854        4.0928264543       -0.3499828784
 O       -14.0112191904        3.0848947253       -0.9962053531
 C       -13.7574710948        5.4697767378       -0.8582000709
 C       -12.7256665802        6.0059334859        0.2521876720
 O       -11.6918213340        5.4473394597        0.4051931598
 C       -13.0257755634        7.2078059855        1.1021351090
 C       -13.0152105044        5.1269002295       -2.2237178327
 C       -14.9697520705        6.5004803260       -1.1703100350
 C       -15.8626635618        4.2887411188        5.5499121849
 C       -14.1624864818        5.0369404735        4.0873105438
 C       -12.2226778984       -1.8036400153        2.7931703118
 C       -11.0956859566       -1.6633416700        5.0630944350
 C        -6.9959334588        2.5392873358        3.0152500893
 C        -8.6874764187        3.9939524324        2.0808830129
 C        -2.7174635069        2.1739053260       -2.9278556068
 C        -2.1766716064        4.7862625586       -2.6849607371
 C        -8.3356882996        3.1943719282       -4.9499586962
 C        -8.5017097765        4.9857593100       -6.7552250637
 H       -11.0668189481        6.5375843131       -4.0855857641
 H       -11.0804281234        5.4042074818       -5.4224189079
 H       -10.0179923665        6.8891200593       -5.4990717144
 H        -5.7225943869        6.1520201107       -6.1581413190
 H        -5.6953881515        4.3971730052       -6.3134421378
 H        -4.1386069501        5.7171745011       -3.9760186146
 H        -3.5735421185        5.3173293190       -5.5721329047
 H        -4.4770520628        5.1886873208       -0.3582477310
 H        -3.0513479262        4.1055252599       -0.0950312598
 H        -4.5540707279        3.4621168909        1.7000104883
 H        -4.7830703983        2.2558159874        0.3776063516
 H        -7.8563396049        0.2771408891        2.2592084955
 H        -8.2671810667       -0.2543487968        0.7404559836
 H       -10.4537884663       -0.0010819532        1.0770086221
 H       -10.4861922776        1.3512393193        2.0636227726
 H       -12.2905343375        0.6550918907        6.2188214932
 H       -13.5065427374       -0.5686976721        5.8819819917
 H       -14.8029765685        1.5751067199        6.4315960675
 H       -15.2244069058        1.1589719552        5.0023082825
 H       -14.6555028244        2.2445927351        1.5000612601
 H       -13.6393842933        3.4457030683        2.1760680754
 H       -15.3502620388        5.0738153749        1.1541597273
 H       -16.2173743988        3.7899609913        0.5968704224
 H       -12.1333839178        7.8097941038        1.4190756396
 H       -13.7313543494        7.1241757383        1.8767101383
 H       -13.5657638454        7.7522859353        0.3820714543
 H       -12.3606922842        4.2787714055       -1.9535619230
 H       -12.3260295926        5.8416694207       -2.6980194158
 H       -13.7396343328        4.7357338032       -2.9048675620
 H       -15.6848493097        6.7130675810       -0.4032513174
 H       -15.5872320875        6.0752711462       -1.9554763652
 H       -14.6021751157        7.4084060907       -1.4806426009
 H       -16.4481574746        3.5339518652        5.8819282908
 H       -16.5728667678        5.0022134087        5.1193321828
 H       -15.3227960382        4.7691224973        6.4158009704
 H       -13.5921353754        5.0034954634        3.1646216000
 H       -13.3784212427        5.3718731657        4.8446424964
 H       -14.7567949679        5.9052086522        3.9963385061
 H       -11.8137530383       -2.8492814224        2.8933284495
 H       -12.4028209773       -1.3401490420        1.8882683622
 H       -13.1424613673       -1.8605323626        3.2851409623
 H       -11.3237077169       -1.1457119980        6.0401843803
 H       -10.0109446333       -1.9487487382        5.0729965358
 H       -11.6097615112       -2.5717938937        4.9920369111
 H        -7.7253624499        2.0235351346        3.6721307909
 H        -6.8786260452        3.3718503841        3.6612600889
 H        -6.0058894816        1.9508201301        3.0226157726
 H        -9.4411914353        4.0935626037        1.2562386209
 H        -8.3705557500        4.9494505504        2.3184156607
 H        -9.3067164211        3.7675277236        2.9038215011
 H        -3.5036948293        1.2862482960       -3.1832617405
 H        -1.9944652429        2.0313476943       -2.0819443504
 H        -2.0276965548        2.1328864658       -3.7964700009
 H        -2.6328482794        5.7895850258       -2.4372977892
 H        -1.7439342396        4.8069895555       -3.6803438507
 H        -1.3048815735        4.3227656197       -2.1131604123
 H        -8.3280985062        2.8676279288       -3.9233372612
 H        -7.4212828099        2.7903177240       -5.2594820351
 H        -9.1750412971        2.7414347941       -5.4312764368
 H        -7.5659101277        4.7253032861       -7.3148883190
 H        -8.6470450511        6.0454670965       -6.8769527499
 H        -9.2854224743        4.4950532451       -7.2264463499
 Na       -7.8961618399        3.8178015082       -1.6182864584
