117

 C       -10.3933216021        6.0704517316       -4.5250796552
 C        -9.3698160899        4.8607322072       -4.2427938120
 O        -9.4259753530        4.3803711251       -3.1116188633
 C        -8.3815123281        4.2269105485       -5.4057080725
 C        -6.9955068380        4.6584352808       -4.8557843654
 O        -6.7531028346        4.8372860774       -3.7003819870
 C        -5.7924162248        5.1315747700       -5.9105222299
 C        -4.4531920721        5.1815679368       -5.2011388048
 C        -4.2576396710        3.8456631983       -4.3655707223
 O        -4.7203454879        2.8269708990       -4.8667004019
 C        -3.5592303508        3.8088317854       -2.9207042284
 C        -4.5220909274        3.6265394162       -1.8373655960
 O        -5.6515364543        3.1655910839       -1.9812559278
 C        -3.9514994667        3.6636840800       -0.3286834918
 C        -4.9700566464        2.9386113223        0.6736327850
 C        -6.3079071754        3.6951659127        0.8126716063
 O        -6.4875723544        4.7181925262        0.2164172915
 C        -7.4004523326        3.1550216089        1.7567038883
 C        -8.1346300331        1.9566908735        0.9459086786
 O        -8.2697633285        1.9596336221       -0.2818396321
 C        -8.7204779925        0.6683574591        1.6602526385
 C       -10.0696227240        0.6620239503        2.5006924907
 C       -10.2908453684       -0.6176642556        3.4599827860
 O        -9.3426534863       -1.3766790751        3.7188197023
 C       -11.6324708069       -0.8847341881        4.0727394266
 C       -12.5385395753        0.4466393649        4.3142073158
 O       -12.6313844630        1.2334416511        3.3912102324
 C       -13.2390032825        0.7437620484        5.6444475890
 C       -14.2268684730        1.8619368657        5.5184592117
 C       -13.6836317517        3.1807192459        5.2464501514
 O       -12.6100063729        3.6229487277        5.5882757631
 C       -14.7197840986        4.1018999358        4.5998449329
 C       -15.2510834559        3.3750861509        3.1852152620
 O       -16.4031020894        2.8545637317        3.1998792808
 C       -14.3565067005        3.5553201159        1.9543398978
 C       -15.1954759159        4.0038392837        0.6715195542
 C       -14.3217129525        4.0532064221       -0.5283795621
 O       -13.8846793910        2.9934913465       -0.9905250151
 C       -13.7770581416        5.4048143240       -0.9514992898
 C       -12.7970053685        5.9088656464        0.2143371179
 O       -11.8804646732        5.1491037652        0.4655618832
 C       -12.8904524491        7.3074213880        0.5686238535
 C       -12.8655827536        5.3428366941       -2.2512706421
 C       -14.8526846787        6.3982077898       -1.2070984081
 C       -15.9383886388        4.3177852482        5.4516521594
 C       -14.1403814343        5.4635856786        4.3846702256
 C       -12.5204875230       -1.6694299873        3.0063389323
 C       -11.4295096755       -1.7211203530        5.3976087822
 C        -6.8007256326        2.8716970202        3.0820677402
 C        -8.5556565338        4.1642466837        1.9525146553
 C        -2.8023744238        2.3799411342       -2.7675991611
 C        -2.6240054189        5.0491186807       -2.6151024636
 C        -8.3241102246        2.6667453798       -5.2754492220
 C        -8.5034502029        4.6974457067       -6.9350815584
 H       -11.2656740416        5.8750486365       -3.8258213507
 H       -10.5877916414        6.0682456530       -5.5957781775
 H        -9.9090310981        6.8960672991       -4.0258274521
 H        -5.9134862444        6.1257187078       -6.4104555450
 H        -5.8723206280        4.2393951309       -6.5781943326
 H        -4.3562215013        6.0399983257       -4.5056495984
 H        -3.5995100171        5.3924958857       -5.8404647443
 H        -3.9419006318        4.6573900748        0.2258258414
 H        -2.9709977208        3.2046732295       -0.0990598951
 H        -4.4000124537        2.8620228735        1.5786524689
 H        -5.1409145663        1.8931845684        0.3818974609
 H        -8.0124386058        0.3913229184        2.4264291569
 H        -8.8048079729       -0.2020486447        0.9976002564
 H       -10.8842359112        0.8353131349        1.7286550836
 H       -10.1109221818        1.5549849195        3.1197856551
 H       -12.3793124044        1.0831756435        6.2299105920
 H       -13.7420913759       -0.1738258118        6.1540903379
 H       -14.7863728816        1.8292434671        6.5051989269
 H       -15.1257995593        1.7056159597        4.8521882406
 H       -13.9153977293        2.5818838331        1.7671280516
 H       -13.5233390865        4.3229720788        2.0989483640
 H       -15.4075566246        5.0932235141        0.8583885860
 H       -16.1951945229        3.6664900273        0.4692022847
 H       -12.0795625864        7.5005680013        1.3686371620
 H       -13.9076686450        7.5095356550        0.9221677635
 H       -12.8122351209        7.8847582178       -0.2964366892
 H       -11.9153989391        4.9821726147       -1.8577381626
 H       -12.6517993314        6.3449079267       -2.6233170664
 H       -13.2260964460        4.8149294370       -3.1521272312
 H       -15.0850418081        7.0462140461       -0.3086595742
 H       -15.8581713941        6.0271599942       -1.6334196664
 H       -14.6027388646        7.1479195127       -1.9500815844
 H       -16.5386845049        3.4745291501        5.4082618999
 H       -16.6654966320        5.0164212568        5.0153641798
 H       -15.7207367194        4.5917290870        6.5051844951
 H       -13.1545761755        5.5771264078        4.6573993591
 H       -14.7101557100        6.2774097374        4.8794693104
 H       -14.0883117918        5.7657001352        3.3636463755
 H       -12.2020174351       -2.7149492129        3.1742686047
 H       -12.2890213195       -1.1616195299        2.0728240224
 H       -13.5727090663       -1.5216360482        3.0712680517
 H       -10.4298649098       -1.4563221997        5.9413981540
 H       -11.4143788422       -2.8090288190        5.2539686191
 H       -12.1628617383       -1.4777339193        6.1226650203
 H        -7.5339667694        2.9124696625        3.8671433783
 H        -5.8875374826        3.3925261520        3.3561877101
 H        -6.4642576049        1.7807920133        3.1127378942
 H        -9.0071372320        4.5497600865        0.9714789832
 H        -8.3582694890        5.0807886224        2.5141559135
 H        -9.4723531487        3.7303308920        2.3258056924
 H        -2.1237642197        2.0882119377       -3.5970759694
 H        -3.5133884233        1.7337405330       -2.3829536471
 H        -2.1605218292        2.4840838798       -2.0084036141
 H        -3.3276037856        5.7891321296       -2.7450013629
 H        -1.9547851972        5.1484364598       -3.3749328634
 H        -2.2096347212        4.9602752977       -1.6274052705
 H        -7.6046386082        2.0785909870       -4.6622133818
 H        -8.1177517114        2.2776854707       -6.3021329802
 H        -9.3171340425        2.3008162125       -4.9721602210
 H        -8.3249783105        3.9423812638       -7.7113401965
 H        -7.8915484087        5.5518828785       -7.1989175803
 H        -9.5410895115        4.9774172751       -7.1402369472
 Na       -7.8166205276        4.0458390614       -1.7587147433
