117

 C       -10.0748805804        6.0098084688       -4.6216376327
 C        -9.3886262292        4.5848759511       -4.3855198082
 O        -9.6859671562        3.8561196011       -3.4711782020
 C        -8.3960479165        4.1131318609       -5.5411303433
 C        -6.9592780696        4.6690198250       -5.0672817724
 O        -6.6878010681        4.6083745802       -3.8571392155
 C        -5.8486217099        4.8188987555       -6.0640481852
 C        -4.5870273286        5.1601847100       -5.1583251790
 C        -4.3579716726        3.8636227951       -4.2856024025
 O        -4.6165619653        2.8279424486       -4.7754575866
 C        -3.4848451206        3.6914611975       -2.9419508887
 C        -4.5198507306        3.2162608408       -1.7027185270
 O        -5.6090351995        2.8583936860       -2.0392062469
 C        -4.1053731940        3.3982965298       -0.2603360675
 C        -5.1215851601        2.8798179361        0.7592413340
 C        -6.3594041162        3.6947415467        0.9668435424
 O        -6.4902008063        4.7313784227        0.2909408018
 C        -7.4830495568        3.2272733101        1.8588565466
 C        -8.2198683065        1.9916300924        1.1422266982
 O        -8.4606778042        1.9379811612       -0.0378991278
 C        -8.6196225887        0.7625050490        1.9101711343
 C        -9.8547353840        0.9251308420        2.8568411899
 C       -10.2180359734       -0.4652562635        3.4453188760
 O        -9.4898750227       -1.4250550344        3.3830202566
 C       -11.6360121607       -0.7351724421        4.1023878588
 C       -12.4789537524        0.5289960163        4.5067132092
 O       -12.6554939689        1.2204608349        3.5314790328
 C       -13.2156061745        0.9063848239        5.8529226657
 C       -14.3218781241        2.0078863757        5.5368821418
 C       -13.8176864664        3.4054157048        5.1963364953
 O       -12.6750171859        3.7207670611        5.5460926804
 C       -14.8185659058        4.5140988459        4.5926859249
 C       -15.1314119332        3.8141639688        3.2177263911
 O       -16.1189249636        3.1408400230        3.0885663434
 C       -14.0777458089        3.7586042150        2.0620222942
 C       -14.9045565378        3.8577283490        0.8174238125
 C       -14.1202431391        4.0282687582       -0.6161173360
 O       -13.9371111500        2.9828402695       -1.2136472162
 C       -13.7125694377        5.5065258177       -1.0990972912
 C       -12.6921141275        5.9585344349       -0.0082716501
 O       -11.9859561376        5.2025322487        0.7094795326
 C       -12.6122466457        7.4694049392        0.4733892592
 C       -12.9371083460        5.1948252052       -2.3984280614
 C       -14.9991292646        6.2787812657       -1.2969564491
 C       -16.0408520789        4.4407029884        5.5128041967
 C       -14.3475430546        5.9336835729        4.3697775834
 C       -12.4497832862       -1.5220938322        3.0382074636
 C       -11.5460121370       -1.6888283760        5.3462453820
 C        -6.9534272676        2.6714005589        3.2734237098
 C        -8.5868004808        4.2975085472        1.9939119798
 C        -2.2524166266        2.6968726154       -3.3381033039
 C        -2.7303881563        5.0763219208       -2.4792055043
 C        -8.2164513040        2.5935969638       -5.3653971955
 C        -8.9820038242        4.3986741963       -6.9279807580
 H       -11.0189094668        5.7290920431       -4.9450810537
 H        -9.5096304149        6.3702735934       -5.4354220450
 H       -10.2420121370        6.5250016407       -3.7064242588
 H        -6.1266366207        5.6061155627       -6.7497130530
 H        -5.8857028050        3.8082458310       -6.4893313254
 H        -4.6019634417        6.1263426208       -4.6411957199
 H        -3.5869162534        5.1921874301       -5.6337813660
 H        -3.9943542153        4.4627744844       -0.0694761501
 H        -3.0867701998        2.8964049167       -0.1667567854
 H        -4.6325843752        2.8665335970        1.8059427868
 H        -5.1835205861        1.7900228855        0.5918444058
 H        -7.8245945630        0.1873492734        2.5160479311
 H        -9.0952215727        0.1402718287        1.1413163845
 H       -10.6932190813        1.3956220958        2.3826542696
 H        -9.6098487000        1.5540189364        3.7364552252
 H       -12.5656690004        1.3244634921        6.6164308063
 H       -13.6004908614        0.0023682466        6.1276156546
 H       -14.8797450910        2.0819505933        6.5165511484
 H       -15.0829793642        1.7558559707        4.8030505190
 H       -13.5328586912        2.7816593887        2.0352515858
 H       -13.4856417990        4.5798307811        2.0950136619
 H       -15.7792592018        4.4867736796        0.9549644333
 H       -15.2997109585        2.8880763043        0.5405324170
 H       -11.8261084065        7.5255150878        1.1293339949
 H       -13.5096095690        7.8889459759        0.9295389246
 H       -12.4811291978        8.0863192416       -0.4378791863
 H       -12.2228458354        4.4059379744       -2.4257828314
 H       -12.5808377209        6.0764665349       -2.8901458180
 H       -13.7565967768        5.0553096083       -3.0911902356
 H       -15.6748227781        5.9948160885       -0.5647201526
 H       -15.3609754843        6.1256712611       -2.2338313721
 H       -14.9693929493        7.3649690736       -1.2674794489
 H       -16.5834801429        3.4580677962        5.8013044902
 H       -16.7592871096        5.0313834698        5.0079707327
 H       -15.8646629018        4.9765591625        6.3749865494
 H       -13.5847870289        6.4018656083        5.0186732823
 H       -15.2310052190        6.4818331201        4.4758546449
 H       -13.7652951347        6.0842957698        3.4148626056
 H       -11.8731324483       -2.1313646277        2.4594403591
 H       -13.0816091915       -0.7893201649        2.5154080482
 H       -13.2123720652       -2.0531052165        3.6177662900
 H       -10.6656233377       -2.3722819851        5.4023263854
 H       -12.2797659204       -2.3927037671        5.1391595593
 H       -11.5895480159       -1.3160834128        6.4047794906
 H        -7.7059143853        2.0409005173        3.8109159473
 H        -6.3974554576        3.4195370020        3.9389915443
 H        -6.1587018887        1.9767398841        3.1031761200
 H        -9.0855326025        4.3940145262        1.1021521195
 H        -8.3216167065        5.3254239696        2.2257184820
 H        -9.3934105042        3.9137190278        2.6269009357
 H        -1.3688505912        3.2491912150       -3.5424195437
 H        -2.7865739194        2.0100929669       -4.0893560626
 H        -1.8486215774        2.0070949974       -2.4612904956
 H        -3.3216757586        5.8241897195       -1.8525267649
 H        -2.5195384663        5.6939117642       -3.4472282493
 H        -1.9824451669        4.5912972663       -1.8367838776
 H        -8.0283771396        2.4614080069       -4.3332191211
 H        -7.4285484574        2.0961031058       -5.9011695094
 H        -9.1031460471        2.0098065101       -5.4578049711
 H        -9.5123068622        3.5709889424       -7.2858252522
 H        -8.2342659190        4.5347783366       -7.6733583480
 H        -9.7490723126        5.2370906552       -6.9798920627
 Na       -7.7510535372        3.8454271212       -1.5797167704
