117

 C        -9.9407013387        5.9403205087       -4.5105552386
 C        -9.4902515888        4.4545633111       -4.4230372526
 O        -9.7460443646        3.8182458012       -3.4601734054
 C        -8.4465821084        3.9213077425       -5.4934761045
 C        -7.0534191859        4.5000389283       -5.1145884428
 O        -6.9101573843        4.7191884085       -3.8996023552
 C        -5.8169394911        4.8797411565       -6.0490620886
 C        -4.5396751751        5.0921056368       -5.1064043676
 C        -4.2452758555        3.7604810363       -4.4160029048
 O        -4.7525486478        2.7367753830       -4.7785003054
 C        -3.3803901753        3.6335788883       -2.9905230484
 C        -4.3643691430        3.0820334660       -1.8692265561
 O        -5.4653123918        2.6811835711       -2.1540066061
 C        -4.0308631080        3.3021170241       -0.1973428529
 C        -5.1400694248        2.8025739898        0.7970262798
 C        -6.3683386646        3.7185137944        1.0427288417
 O        -6.6821560426        4.6759525285        0.3414921635
 C        -7.5810610340        3.1478544712        1.9277738212
 C        -8.2710517630        1.9436596232        1.1915542708
 O        -8.4869280324        2.1578004487        0.0168363405
 C        -8.6378779318        0.7086940858        1.9630824589
 C        -9.8165982415        0.9797341194        3.0366749556
 C       -10.2733987679       -0.4715870789        3.5524939477
 O        -9.4549712540       -1.3478130792        3.2132460937
 C       -11.7508492389       -0.7512533906        4.2027822076
 C       -12.5296048194        0.6268814843        4.4022989756
 O       -12.6275884667        1.4531057892        3.4882673705
 C       -13.2420780662        1.1019922566        5.7531435838
 C       -14.2987754685        2.0995507181        5.6962555716
 C       -13.8018223404        3.5117977085        5.3196037118
 O       -12.6321567084        3.8380297508        5.4786232597
 C       -14.8364383615        4.5569193200        4.6389300099
 C       -15.0947613606        3.7794440800        3.2277699942
 O       -16.2243635416        3.2257353923        3.1004780695
 C       -14.0577956747        3.8481781440        2.1085248216
 C       -14.8350142892        3.6917899401        0.7678330266
 C       -14.0555842511        3.8993262013       -0.5408986641
 O       -13.9406250742        3.0230824208       -1.3727082793
 C       -13.7128419238        5.3908655610       -1.0914630222
 C       -12.7102804202        6.0325432515       -0.0164806643
 O       -11.9905872661        5.2741035908        0.6257851953
 C       -12.5298733220        7.5929739215        0.2881758661
 C       -12.9220560068        5.2265915940       -2.4712845077
 C       -14.8693481165        6.2439526026       -1.2757363588
 C       -16.0990221369        4.5675533425        5.4164504543
 C       -14.3093332068        5.9412064141        4.5773838816
 C       -12.4719338696       -1.4424969423        2.9687723931
 C       -11.4823525552       -1.6554844810        5.4282529330
 C        -6.9500640907        2.7203508011        3.2917628547
 C        -8.5511697414        4.3180625663        2.0280716360
 C        -2.1286664758        2.8055922882       -3.2328899371
 C        -2.9767092664        5.0926730969       -2.4736780923
 C        -8.2234849001        2.4228340172       -5.4287588291
 C        -8.8771467130        4.2203135227       -6.9736129646
 H       -10.6070700807        6.0284772707       -5.3831343758
 H        -9.0470300796        6.5252072965       -4.5805555139
 H       -10.5524875443        5.9609811813       -3.6692995912
 H        -6.1136938319        5.7283354233       -6.5361476159
 H        -5.6008809874        4.0066520213       -6.6749392094
 H        -4.5960726329        5.7366584990       -4.2064035624
 H        -3.6678871018        5.4519610554       -5.5886330232
 H        -4.0454301623        4.3917614474       -0.0768765601
 H        -3.0632006524        2.9007330868       -0.0678091210
 H        -4.7772465639        2.6471092067        1.8497633159
 H        -5.3431612217        1.7896378426        0.5321893590
 H        -7.7365754956        0.4816157786        2.6367845102
 H        -8.9864802994       -0.0787419552        1.3659830935
 H       -10.7304857687        1.5016197849        2.6555224023
 H        -9.3780498492        1.5775860252        3.8253951199
 H       -12.3872000777        1.6412215426        6.2076559982
 H       -13.4475866234        0.1861613494        6.3507241090
 H       -14.9005616398        2.1532318275        6.6833288093
 H       -14.9971092811        1.8820443281        4.9398889476
 H       -13.2553013346        3.0444724955        2.2626015875
 H       -13.7040832706        4.8873004290        2.2077023365
 H       -15.6009553539        4.5906615370        0.7103021242
 H       -15.3866079956        2.7625600166        0.6158790066
 H       -11.6779797716        7.8324423323        1.0218801715
 H       -13.4974109879        7.9082103846        0.7521956838
 H       -12.5408201893        8.1125856873       -0.6151577374
 H       -12.1632419054        4.4719821892       -2.5856654123
 H       -12.6317505470        6.2184053249       -2.7861109505
 H       -13.6821019567        5.1345219132       -3.2893765976
 H       -15.6994929532        6.0034193994       -0.6724949713
 H       -15.1548815513        6.3504695473       -2.3046007085
 H       -14.6363023155        7.2495515002       -1.0746069049
 H       -16.5878823147        3.6046534943        5.5572464337
 H       -16.8051051011        5.2679678323        4.8615892347
 H       -16.0365777090        5.0523023836        6.4089784561
 H       -13.9059008372        6.1919499687        5.5582946254
 H       -15.2057009511        6.6652690824        4.5218741056
 H       -13.3566343293        6.1568444067        4.0418460850
 H       -11.6513752185       -2.0255535767        2.4977736089
 H       -13.0034978468       -0.7146347264        2.2731093689
 H       -13.2769025933       -2.1094176894        3.3671144109
 H       -10.9304134491       -2.6854036718        5.1682789282
 H       -12.3606976796       -2.0180461254        5.8924346539
 H       -10.7772571150       -1.2268267278        6.1293271402
 H        -7.4533844645        2.0200438937        3.8633149289
 H        -6.6617620129        3.6171588595        3.8434470050
 H        -5.9762387254        2.2815498400        3.1333772388
 H        -8.9750624773        4.5005168495        1.0268271335
 H        -8.0056472045        5.2706572678        2.1641962476
 H        -9.4006099200        4.2862243240        2.6959076791
 H        -1.3383235271        3.5269788391       -3.5510687519
 H        -2.4722152495        2.0266958467       -3.9608053117
 H        -1.6591785063        2.3554120444       -2.3983296144
 H        -3.8319455590        5.7157836492       -2.0180446223
 H        -2.8236389655        5.6429092959       -3.4096060548
 H        -2.2067970323        4.9189342952       -1.6550461255
 H        -8.3007282753        2.0658246634       -4.4229326862
 H        -7.2169513309        2.1714885540       -5.8102134757
 H        -8.8879584018        1.7875647348       -5.9589087320
 H        -9.7536165755        3.6740675465       -7.2933901197
 H        -8.0881751894        3.8953195724       -7.6577600994
 H        -9.1612630031        5.3003557133       -7.1658801195
 Na       -7.7957704089        3.6432919348       -1.6110269463
