117

 C        -9.7521838761        5.6625762721       -4.6446575596
 C        -9.3589991243        4.2188482362       -4.4296060770
 O        -9.5953388125        3.5201633004       -3.4156092951
 C        -8.3318390663        3.6839095166       -5.4247833095
 C        -7.1404086290        4.4264871013       -4.7625709649
 O        -7.1258339544        4.8260851373       -3.6276546728
 C        -6.0439594631        4.8166102267       -5.7554805193
 C        -4.7271303678        4.9167403306       -5.0993832672
 C        -4.3454401317        3.5237597375       -4.2118395970
 O        -4.5957999397        2.4485309796       -4.6524121065
 C        -3.6669761027        3.8000009257       -2.9423681796
 C        -4.5599256803        3.0037647414       -1.8323467422
 O        -5.4915788123        2.3421337216       -2.2077646958
 C        -4.1394217335        3.2284059880       -0.3980912026
 C        -5.1467032725        2.6742385823        0.5857196179
 C        -6.3423395526        3.7274090020        0.8480825443
 O        -6.5482211316        4.5229212415       -0.0588316644
 C        -7.4557455357        3.3502850152        1.9837063335
 C        -8.2475959387        2.0590673873        1.2679921798
 O        -8.6206016851        2.2259109106        0.1208344159
 C        -8.7112526909        0.7749543849        2.0086287923
 C        -9.8322099773        0.9902573671        3.0349970818
 C       -10.3504535805       -0.3855607087        3.4385496248
 O        -9.7298928394       -1.3984658447        3.3804645155
 C       -11.7319058732       -0.4621997226        4.1535048539
 C       -12.4282847473        0.9102391913        4.3280351319
 O       -12.6406525735        1.6513724710        3.3948130957
 C       -12.8911847813        1.1859604966        5.7512789366
 C       -14.1410116972        2.1240355182        5.7895904298
 C       -13.7806535847        3.5512735747        5.3409291532
 O       -12.6297126321        3.9625928642        5.4914167229
 C       -14.8539400649        4.5411599039        4.6698841609
 C       -15.2334665764        4.0388993692        3.2275007442
 O       -16.2025940738        3.4205774392        3.0951367806
 C       -14.1961991778        4.2173494644        1.9613906875
 C       -14.8330014595        3.5900594099        0.7413306868
 C       -14.0711891911        3.9706441764       -0.6260328341
 O       -13.8420012648        3.0720668015       -1.3904363001
 C       -13.5507899953        5.3202768754       -1.0719759207
 C       -12.5672567841        6.0065541587       -0.0453897762
 O       -11.7093889121        5.3686232877        0.5600460194
 C       -12.5609603310        7.6078264230       -0.2102563112
 C       -12.8135896107        5.3674082391       -2.3608779523
 C       -14.9475493453        6.1816498650       -1.1655544405
 C       -16.1609454230        4.5820659129        5.4364491289
 C       -14.1698808481        5.9481075465        4.6572449508
 C       -12.6884845098       -1.3585070357        3.0762352451
 C       -11.5804015100       -1.2758953848        5.3873181545
 C        -6.8033404814        2.9560033677        3.3297744287
 C        -8.5115293800        4.3231868776        2.2869937132
 C        -2.2334332629        2.9648641869       -2.9196922233
 C        -3.2575933298        5.2166089168       -2.6254854160
 C        -8.3183997380        2.2040669401       -5.3764909957
 C        -8.5309745068        4.1120947898       -6.8662354124
 H        -9.0859141829        6.0155635513       -5.4227273737
 H        -9.5837859508        6.0962128427       -3.5962065889
 H       -10.8078189183        5.5927655139       -5.0839334338
 H        -6.3781773737        5.8866305225       -6.0633345153
 H        -5.9499889689        4.0802392412       -6.5607586894
 H        -4.6684393199        5.6404340138       -4.3507650490
 H        -4.0013554394        5.2398884421       -5.9007227266
 H        -4.2088873656        4.3151499239       -0.3132292250
 H        -3.0600720570        2.8774079858       -0.3918283860
 H        -4.8153282179        2.2045074555        1.4917232238
 H        -5.5818309876        1.7856972771        0.0669646957
 H        -7.9277084134        0.3568532949        2.5887057021
 H        -9.2522509307        0.1066123457        1.2956385938
 H       -10.6740121345        1.5937191807        2.7644632037
 H        -9.3434698784        1.4030194314        3.9621943146
 H       -11.9791671050        1.3865490794        6.3754656880
 H       -13.2267648913        0.1764487773        5.9980960039
 H       -14.2758600170        2.3670778540        6.8337762210
 H       -15.0895972661        1.5993182088        5.3240448560
 H       -13.2114222354        3.9129239004        2.2489007834
 H       -14.3709488600        5.2869976350        1.7939129800
 H       -15.7913163055        3.9812307329        0.7210635780
 H       -14.8818899631        2.4554394269        0.7430508492
 H       -11.6202135268        7.7480267772        0.1995313561
 H       -13.2779547475        8.2455395895        0.3091050585
 H       -12.6026895710        7.8979081441       -1.3384052748
 H       -11.7888297645        4.9771154845       -2.1266141971
 H       -12.8618136908        6.4071633686       -2.7522732846
 H       -13.1008483521        4.7374944147       -3.1859214949
 H       -15.4934487263        6.3630689998       -0.1863722168
 H       -15.6695427903        5.7776315428       -1.9029020690
 H       -14.7254216236        7.2052002029       -1.6658841984
 H       -16.6609258902        3.5752536495        5.5657236854
 H       -16.8345511429        5.3542131396        5.1716239894
 H       -15.8973086857        4.7887493699        6.4575147094
 H       -14.3596740216        6.5937948768        5.5612498340
 H       -14.5050319726        6.5228529489        3.9069081009
 H       -13.0892097461        5.8871917917        4.7174932718
 H       -12.3033078539       -2.3282553868        3.1148600121
 H       -12.6264542793       -0.9561924115        2.0476629346
 H       -13.7327617387       -1.2860543462        3.4651632051
 H       -11.7852148089       -2.3138762337        5.3847529330
 H       -12.1001646174       -1.0705270988        6.2908811448
 H       -10.4902812573       -1.2584101822        5.6359993748
 H        -7.6205221178        2.8804075208        4.0931026882
 H        -6.1180464333        3.8076952929        3.5656424319
 H        -6.2804220504        2.0115149516        3.3172476929
 H        -9.0183481569        4.8006474432        1.4706169248
 H        -8.0909170811        5.1916361557        2.8276393193
 H        -9.2749093500        3.9240338656        3.0188301595
 H        -1.6980168995        3.2824801058       -3.7426125842
 H        -2.3179730718        1.8941165799       -2.8989998249
 H        -1.7156495958        3.4524343050       -2.0827365932
 H        -3.9397008981        5.9612577225       -2.5369000199
 H        -2.6145514654        5.4236405926       -3.4651275260
 H        -2.7470108013        5.2028050251       -1.7424071290
 H        -8.4527119888        1.8799662804       -4.3084200123
 H        -7.3715854203        1.7981996959       -5.7425174261
 H        -9.0345314712        1.5713330270       -5.9604357437
 H        -9.5240205351        4.4538092579       -7.1497700342
 H        -8.2878667521        3.3091648236       -7.5553256299
 H        -7.9043661555        4.9617795641       -7.1268621361
 Na       -7.7692273132        3.2623098875       -2.0211903271
