117

 C       -10.3261524336        8.7907170585       -1.6902927386
 C        -9.1851463181        9.8100465073       -1.5363570801
 O        -9.0740717036       10.3559714439       -0.4666455919
 C        -8.2582115001       10.0860677116       -2.7994300752
 C        -7.2544002365        8.7318296766       -2.8624328544
 O        -7.0614706949        8.1014510317       -3.8989691162
 C        -6.4148605626        8.5105130741       -1.6155129638
 C        -5.6287666382        7.1731541700       -1.3665373940
 C        -6.3923692352        5.8323561238       -1.7238180070
 O        -7.5479862770        5.8333520012       -2.0488353958
 C        -5.5529831601        4.3639314410       -1.6032601070
 C        -5.6296816796        3.9814290337       -0.1252396554
 O        -4.8339895837        4.4531193674        0.6574865556
 C        -6.7059683328        2.9280423576        0.3644571780
 C        -6.6111956897        2.7951042432        1.9043162511
 C        -7.3323842463        1.5960180896        2.5027590420
 O        -8.0176976742        0.8569184867        1.8577045344
 C        -6.9757115273        1.1822101138        3.9451314894
 C        -7.8904995549        2.0994990004        4.8733417607
 O        -7.4529147640        3.0943657564        5.3622092100
 C        -9.4133084448        1.7140397113        5.0483348815
 C       -10.3530295962        2.9142571491        4.7860845216
 C       -10.6176343141        3.3767929622        3.2991759053
 O        -9.8243867442        3.2183740006        2.3862284789
 C       -11.9899533151        4.0190779239        2.9819445592
 C       -12.8176806169        3.0470737652        2.0718714112
 O       -12.3763931891        2.1879315043        1.3531274767
 C       -14.3716419744        3.2867247347        2.0202076260
 C       -15.0582983475        2.7358935369        0.7482031712
 C       -14.3822038788        3.4347124933       -0.4448068044
 O       -13.3217996352        4.1157121598       -0.3578917046
 C       -14.9927574076        3.2477651738       -1.8662225639
 C       -14.0945911497        2.0092705613       -2.2984862250
 O       -14.3592811608        0.9298097358       -1.9293683106
 C       -12.8575992094        2.3836312373       -3.1296863982
 C       -11.9015801478        1.2726823865       -3.2960671875
 C       -10.9092658816        1.0044783839       -2.1821769237
 O       -10.5119355784        1.9437138136       -1.4890660811
 C       -10.2650664470       -0.3669162170       -2.0096612982
 C       -10.9898223193       -1.0826021195       -0.8062963884
 O       -10.9917098303       -0.6034190275        0.2744623266
 C       -11.6054116983       -2.4924339619       -1.1042133362
 C       -10.4038063107       -1.2159658399       -3.3466967706
 C        -8.7711041171       -0.2955293925       -1.5770444349
 C       -16.4909090919        2.8674231141       -1.7889206678
 C       -14.9436685040        4.5496077666       -2.6846757326
 C       -12.8524325459        4.3686350911        4.2179314733
 C       -11.7246962589        5.3264655828        2.1771971770
 C        -7.1871827816       -0.3395324179        4.2442414325
 C        -5.5070685844        1.6661188926        4.2024370826
 C        -6.1731438912        3.3716912025       -2.5239383397
 C        -4.1616010593        4.6185961311       -2.1540546915
 C        -8.9514815073       10.2551602692       -4.2490173744
 C        -7.3103240216       11.2221869700       -2.6031534719
 H       -10.3068494228        8.1433548800       -2.6365806601
 H       -11.3428910493        9.2387971817       -1.6440071730
 H       -10.1341959323        8.2051555468       -0.7374275184
 H        -7.1629982285        8.4844162235       -0.8901147460
 H        -5.7967315776        9.3251920349       -1.4083368516
 H        -5.2247348944        7.1011655484       -0.3493077903
 H        -4.7508767928        7.2348152186       -2.0462116584
 H        -6.5439901074        2.0220561601       -0.1628479312
 H        -7.6449147150        3.2946729236        0.0426223182
 H        -6.8812433435        3.7056433557        2.3959729395
 H        -5.4619579762        2.6764238401        2.0175230181
 H        -9.6996798101        1.4455350737        6.0844726289
 H        -9.7609121413        0.9462843935        4.4186232719
 H        -9.9761119999        3.8551492993        5.1681356271
 H       -11.2727494250        2.5188993311        5.2541242747
 H       -14.6339645844        4.3885981683        2.0223700243
 H       -14.8960078870        2.9990388645        2.9510748705
 H       -16.1108605469        3.0133599277        0.6850088669
 H       -14.9247907944        1.6671608727        0.5618134727
 H       -12.4409605609        3.1353389797       -2.3988315276
 H       -13.0015103831        2.9008419253       -4.0605895006
 H       -11.3357407427        1.4093615983       -4.1752215191
 H       -12.5283032928        0.4884281986       -3.4167634975
 H       -12.2030441414       -2.7712941688       -0.2760757465
 H       -10.8456481220       -3.2217959484       -1.3839018327
 H       -12.2440641005       -2.4938993726       -1.9777295161
 H       -10.0641019613       -0.5810000803       -4.1900063456
 H       -11.4378988595       -1.4709959144       -3.4440604468
 H        -9.9742511164       -2.1844151860       -3.3642161564
 H        -8.4872462119       -0.0415578787       -0.6270003830
 H        -8.4031314743        0.5499934957       -2.2875811385
 H        -8.1974911907       -1.1782102748       -1.8349880672
 H       -16.6117679935        1.9249018575       -1.2993968955
 H       -16.8412841440        2.6929366865       -2.7817343220
 H       -17.0268071931        3.6456511243       -1.1983658149
 H       -14.6325159507        5.3454781445       -2.0391962290
 H       -15.9874241271        4.7945747381       -3.0369417314
 H       -14.2774751509        4.4784716428       -3.5213639498
 H       -12.2655020886        5.0245751421        4.8634140371
 H       -13.1237974986        3.4727563801        4.7532363726
 H       -13.7793721385        4.8081164264        4.0092616413
 H       -11.2079467544        6.0441930119        2.8017303249
 H       -12.6013859729        5.7711894790        1.7451773750
 H       -11.0322305666        5.1308836441        1.3191951715
 H        -7.4527820282       -0.4830222142        5.3071458091
 H        -6.2179503270       -0.8943274406        4.1230222969
 H        -7.9948271603       -0.7077196760        3.7312016191
 H        -4.8290102948        1.4425091574        3.3637002027
 H        -4.9495354138        1.2809490742        5.0207950588
 H        -5.5845164473        2.7472495203        4.2799588167
 H        -7.1105185686        2.9774611979       -2.2808235291
 H        -5.5591022230        2.4576727670       -2.6772862972
 H        -6.2128527722        3.7720589300       -3.5133556181
 H        -4.2731283236        4.8401667854       -3.2332050635
 H        -3.5792710415        3.7170564069       -1.9351454997
 H        -3.6526719864        5.4381807543       -1.6685373039
 H        -8.1434203721       10.5332030032       -4.8494422590
 H        -9.6233777715       11.1101725589       -4.2083997194
 H        -9.5035546259        9.3843801923       -4.4115467294
 H        -6.7609797207       11.0487945980       -1.6755772145
 H        -7.9135458097       12.1450738822       -2.5295896148
 H        -6.6223726271       11.4392798768       -3.4191209822
 Na      -10.1763361803        1.3210168713        0.8327384988
