117

 C       -10.5797962252        5.1470036193       -4.7251086399
 C        -9.5664272517        4.0247510838       -4.2751270528
 O        -9.7345001082        3.4067231351       -3.2006053316
 C        -8.3477807079        3.5591281780       -5.2394007785
 C        -6.8762987477        4.2322461189       -4.8676259243
 O        -6.5900447072        4.1745919318       -3.7079549447
 C        -5.8094128363        4.4939797998       -5.9592406090
 C        -4.5161341996        4.7891817899       -5.2902556147
 C        -4.1734260079        3.5608822940       -4.3024581276
 O        -4.3711649129        2.3995807181       -4.6528155261
 C        -3.7279567127        3.7111604101       -2.8323510027
 C        -4.5902015495        2.9047266365       -1.7507460117
 O        -5.6506640896        2.3987469514       -2.0590528517
 C        -3.9997746242        3.0451220102       -0.3269334891
 C        -5.1687241641        2.6882325850        0.6162868112
 C        -6.4357945554        3.6269511563        0.6033110978
 O        -6.7371164660        4.2292458735       -0.4040292619
 C        -7.3686718269        3.3692496368        1.8520012593
 C        -8.2944962820        2.0777200704        1.1933801589
 O        -8.7767248780        2.0607016186        0.0556139250
 C        -8.7570572074        0.8766496920        2.1364592904
 C       -10.1556182201        1.0635977878        2.6916537679
 C       -10.4955696661       -0.2434504057        3.4079871274
 O        -9.8477884858       -1.2180981788        3.2076784582
 C       -11.8603367342       -0.3412157561        4.2225583928
 C       -12.3978294757        1.0363490608        4.5381522607
 O       -12.6710288821        1.7931797462        3.6207894044
 C       -13.0628618759        1.3162080361        5.8576193187
 C       -14.0988875593        2.3661106149        5.6132174156
 C       -13.6017624315        3.8894971306        5.1353048330
 O       -12.5336467839        4.3870341630        5.2883561053
 C       -14.7701532766        4.8094270815        4.5577539271
 C       -15.2527801349        4.2958578748        3.2072016589
 O       -16.1414348496        3.5434431112        3.1120007229
 C       -14.5005729570        4.8188001554        1.9843985079
 C       -14.4731147215        3.6242089238        0.8853542850
 C       -13.7451832768        3.9185788552       -0.4884985659
 O       -13.4858328985        2.9659101721       -1.1629287908
 C       -13.4824205612        5.3941020337       -1.0151932844
 C       -12.3895255808        6.0821945371       -0.3144009558
 O       -11.6731002834        5.5918400614        0.5501611632
 C       -12.3872911032        7.7472007405       -0.4064123188
 C       -13.0840608041        5.2045724917       -2.5347124412
 C       -14.8209346552        6.1863218647       -1.0727669053
 C       -15.9891037723        4.8209299021        5.5366395586
 C       -14.2301061553        6.2800164850        4.5164938891
 C       -12.9184633382       -1.0540829302        3.3026595598
 C       -11.5329520685       -1.3177747385        5.4953409923
 C        -6.8365476342        3.0536382608        3.2186560780
 C        -8.1222985227        4.7257435079        1.9877189547
 C        -2.3157664310        2.9196044189       -2.6753335761
 C        -3.6103833511        5.2161658677       -2.3439899977
 C        -7.9790645428        2.0907703318       -4.9509007236
 C        -8.7618129387        3.6687053536       -6.6872246604
 H       -11.0757917291        5.6185815657       -3.9493516897
 H       -11.1704572144        4.5385852717       -5.4195879733
 H        -9.9203675389        5.8066052765       -5.2710837379
 H        -5.9847397986        5.4091404344       -6.5243068507
 H        -5.9364778077        3.6413146737       -6.5389330995
 H        -4.6576551822        5.7143196583       -4.7648882926
 H        -3.6952849312        4.9278261451       -6.0278062044
 H        -3.7007604258        4.0617153342       -0.1601402037
 H        -3.1842628053        2.3974281076       -0.1126632144
 H        -4.7031732315        2.3543199238        1.5011943816
 H        -5.7601211510        1.7745037668        0.3338196439
 H        -8.0191000666        0.7965638667        2.8468720653
 H        -8.8184852465       -0.0208981878        1.4205855726
 H       -10.8667237642        1.2367188390        1.8570480602
 H       -10.1195868542        1.8918753851        3.3946725527
 H       -12.3517665735        1.5516512015        6.6443557356
 H       -13.5386817571        0.3590683928        6.2765929264
 H       -14.5480147351        2.2478752486        6.5295703808
 H       -14.6393997373        2.0463551173        4.6777819419
 H       -13.5636014986        5.2501639655        2.3323617163
 H       -15.2097291144        5.7483612576        1.7116739463
 H       -15.4504445927        3.1251113109        0.6596652517
 H       -13.7768527228        2.7378978831        1.2669863244
 H       -11.4161878154        8.1042273512       -0.1510244382
 H       -13.0637867023        8.1784433523        0.3236437322
 H       -12.7147635170        8.0075199215       -1.4900158510
 H       -12.2355884988        4.5173358814       -2.6910882931
 H       -12.9627668202        6.1362896999       -3.0740660017
 H       -13.7900505143        4.5793804781       -2.9778091347
 H       -14.8459603959        6.9362574299       -0.3384707918
 H       -15.4999609285        5.4965090637       -0.6545670153
 H       -15.1885687944        6.6650888255       -1.9373145780
 H       -16.5128356309        3.8422500548        5.3218333387
 H       -16.6939221049        5.6341003503        5.3288612166
 H       -15.7576453580        4.7465108317        6.6282918606
 H       -13.7953957121        6.8002472075        5.4921051164
 H       -14.9916306670        6.9830848670        4.1289957427
 H       -13.4750492538        6.2481918033        3.6758179660
 H       -12.5912317617       -1.9776129789        2.7856661357
 H       -13.0324228265       -0.3295202735        2.4491212711
 H       -13.8034262777       -1.3228976421        3.9618727465
 H       -10.8413369557       -2.0274789527        5.1681603711
 H       -12.3632684482       -2.0045126930        5.7642475360
 H       -11.2029230944       -1.0051762122        6.5288379271
 H        -7.7213764060        2.8435743741        3.8000905273
 H        -6.3130404454        3.8437886886        3.6543776508
 H        -6.2382106481        2.1680295085        3.0943367222
 H        -8.4772302765        5.1170621542        1.0212048060
 H        -7.4787916442        5.4817450501        2.3882554787
 H        -8.8962230457        4.7021130409        2.7878892100
 H        -1.5392364326        3.0335605039       -3.3954650814
 H        -2.5756432402        1.8748416574       -2.8270502325
 H        -2.0979258059        3.0871645038       -1.5952024148
 H        -4.5888217774        5.7321847068       -2.1742081801
 H        -2.7639714132        5.8606779209       -2.7817445184
 H        -3.2175873667        5.1989633082       -1.3199463406
 H        -7.5175302078        1.8100392804       -4.0108661079
 H        -7.4308597570        1.6959216758       -5.7290609310
 H        -8.8692570958        1.4875983320       -5.1020812701
 H        -9.3669872670        2.7321347493       -6.9033518971
 H        -7.9482840488        3.7520556236       -7.4499779926
 H        -9.3660892791        4.5113570669       -6.8733478988
 Na       -7.9061566132        2.7292155476       -1.9880671320
