117

 C       -10.5618277034        4.8272558547       -4.8080411905
 C        -9.4510304007        3.9305911114       -4.3201495294
 O        -9.5879027912        3.4592791828       -3.1877700294
 C        -8.3761155874        3.4987371379       -5.2571173077
 C        -6.9613544408        4.0827876106       -4.8731191706
 O        -6.5082571431        4.0880146494       -3.7551805127
 C        -5.8951825885        4.4692391421       -5.9612751053
 C        -4.5709792149        4.6780028741       -5.1725589151
 C        -4.1738879785        3.4653569232       -4.2722816417
 O        -4.3091379941        2.3735580069       -4.6903379693
 C        -3.6128064727        3.6828002491       -2.7986703833
 C        -4.5810079161        3.0020649245       -1.7669651162
 O        -5.5292304668        2.2935754844       -2.0869907694
 C        -4.0696114384        2.8763088510       -0.3477136691
 C        -5.1811273147        2.5573909512        0.7458620046
 C        -6.4153101340        3.4170887917        0.5921449107
 O        -6.5905309579        4.1328126973       -0.3872616717
 C        -7.5296753051        3.3618699346        1.7414641846
 C        -8.4322501783        2.2254695642        1.2753592943
 O        -8.7725598238        2.0585779515        0.1032135894
 C        -8.8170048815        0.9704204489        2.2425888069
 C       -10.2930568002        1.0812994988        2.5926470553
 C       -10.6263997452       -0.2420003584        3.3361472501
 O        -9.8843203013       -1.1962943431        3.1797466874
 C       -11.8632033992       -0.4180663387        4.2526979831
 C       -12.5679499771        1.0231373030        4.4784607604
 O       -12.4543739213        1.8552854965        3.6001048485
 C       -13.0788568170        1.4958378860        5.8902152257
 C       -14.1750436820        2.6577577957        5.6908377430
 C       -13.7249495171        3.9651289230        5.1713387467
 O       -12.5340150409        4.3831741472        5.1633148616
 C       -14.8188348763        4.9448671245        4.5951667952
 C       -15.2269146700        4.3498271381        3.2211247657
 O       -16.1021907385        3.5024139463        3.2235178346
 C       -14.4647924779        4.8732015231        1.8762248760
 C       -14.3089178338        3.6192251719        0.9724992635
 C       -13.5958184977        3.9601849909       -0.3968070038
 O       -13.2856876150        2.9576598662       -1.0579171916
 C       -13.5955048505        5.3910426271       -0.9995126391
 C       -12.4317991470        6.1410399686       -0.2759416798
 O       -11.6909701534        5.5557799572        0.4716551248
 C       -12.3918413937        7.6540583596       -0.5233164283
 C       -13.1779699043        5.1789557531       -2.5352588882
 C       -14.8802175081        6.2629640153       -1.0158517160
 C       -16.0743689639        5.0537283197        5.4905792058
 C       -14.1639965299        6.3845105773        4.6675845871
 C       -12.8613156394       -1.0980519523        3.2482199300
 C       -11.5337343214       -1.2405212380        5.5065990722
 C        -7.0052915519        3.0274795630        3.2316916176
 C        -8.2998034957        4.6899141359        1.8539406956
 C        -2.0673158389        3.1510510185       -2.8195133473
 C        -3.5054296309        5.2269312463       -2.5068057559
 C        -8.0689443703        2.0450486869       -4.8348061477
 C        -8.7798580372        3.5602706846       -6.7402320724
 H       -11.3484644538        4.5937920336       -4.0595978757
 H       -10.8000758840        4.4911468787       -5.8666090910
 H       -10.2029556264        5.8806932635       -4.6991458129
 H        -5.9412859538        5.2665151415       -6.7429297669
 H        -5.8768775587        3.4974701391       -6.4635623296
 H        -4.5839872660        5.5775016004       -4.6381597146
 H        -3.7941820143        4.7435021342       -5.9628076197
 H        -3.3821206798        3.6462388853        0.0037681684
 H        -3.5038686375        1.9203605999       -0.3620591319
 H        -4.6358521214        2.8252784739        1.6368877955
 H        -5.4865046226        1.5610936025        1.0065461346
 H        -8.0770731595        0.8649977798        3.0860851777
 H        -8.6505336446        0.1245437273        1.5780766613
 H       -10.8193410011        1.2109366872        1.6777426404
 H       -10.3507392701        1.9638813439        3.2917231125
 H       -12.1151312612        1.7960538501        6.4639773172
 H       -13.4616658666        0.7018800842        6.5212818541
 H       -14.4151451822        2.7613443312        6.7416740781
 H       -14.9522755602        2.2442572594        4.9712816657
 H       -13.5568051276        5.4612834356        2.2259520451
 H       -15.1499426996        5.6004967280        1.3823462429
 H       -15.2432169254        3.0752927999        0.7622148585
 H       -13.5960187407        2.8722543217        1.4582365359
 H       -11.3209781267        7.9129488933       -0.4366682237
 H       -12.9581215414        8.2871489482        0.1973431054
 H       -12.7287861141        7.7626073708       -1.5769220905
 H       -12.5283674633        4.3219110826       -2.6701939456
 H       -12.5906772945        6.0694376741       -2.8374069562
 H       -13.9566868284        4.9222518818       -3.2567358048
 H       -14.8584086392        7.0253700446       -0.2311187247
 H       -15.7602468104        5.7138528153       -0.7941766417
 H       -14.9509052241        6.9179800106       -1.9223717516
 H       -16.7535837755        4.0756014566        5.4397518048
 H       -16.7160846972        5.9228973114        5.2387080542
 H       -15.7660800947        5.0782468455        6.5443785260
 H       -13.6876567722        6.6021607543        5.6096053872
 H       -14.9065565096        7.1600158088        4.5531912613
 H       -13.4768030667        6.5499369225        3.7721030870
 H       -12.5012858729       -1.7892415212        2.5330499036
 H       -13.2133895150       -0.2460824689        2.5623570258
 H       -13.6064009579       -1.6295465030        3.9482998850
 H       -10.4903245180       -1.6798890351        5.5851725720
 H       -12.0941906239       -2.0291954697        5.7308955552
 H       -11.7079654331       -0.6707309970        6.4305698637
 H        -7.8182120461        2.8303230111        3.8710828151
 H        -6.5591172031        3.9777404312        3.5844153685
 H        -6.2989937735        2.3081182103        3.1339547863
 H        -8.8615160396        4.9605306775        1.0047942509
 H        -7.6281426574        5.5813796849        2.0756865367
 H        -8.9087176498        4.6705227945        2.8174900646
 H        -1.4665460698        3.6228084102       -3.4720475915
 H        -2.1320327787        2.1913762748       -3.2721133191
 H        -1.8087139785        3.0664417915       -1.8132106655
 H        -4.4315378097        5.6328738401       -2.2922519504
 H        -2.8918821261        5.7726753402       -3.1531627396
 H        -2.9528379050        5.4220077117       -1.6579433410
 H        -7.5294785435        2.0067829221       -3.8874502617
 H        -7.4398717911        1.4956289649       -5.5563094120
 H        -8.9763424379        1.4087165672       -4.8092970881
 H        -9.3033185114        2.6305789141       -6.8510526737
 H        -7.9916397182        3.6322382634       -7.4945926225
 H        -9.5005931294        4.4322544289       -7.0263690730
 Na       -8.0279513309        2.7632121351       -1.9157188054
