117

 C       -10.6630688542        4.4442623182       -5.1068012788
 C        -9.5388368962        3.6987612764       -4.4333289481
 O        -9.4366602255        3.8136714757       -3.2159582063
 C        -8.3449286209        2.9917773969       -5.2772208858
 C        -7.0522177094        3.8483127377       -4.7777906956
 O        -6.9663865729        4.1854436311       -3.5809515655
 C        -5.9945779569        4.1365483631       -5.7399700675
 C        -4.5910104963        4.5657324270       -5.2174939372
 C        -4.0683535758        3.4331939075       -4.3153145945
 O        -4.1685831412        2.2678084052       -4.7014478782
 C        -3.4745374916        3.6903012573       -2.9080901935
 C        -4.3803851216        2.8534214742       -1.8023112578
 O        -5.3003758577        2.2139984599       -2.2273777139
 C        -3.9946858665        2.7090296491       -0.2891411306
 C        -5.0629147343        2.5259946882        0.8225317167
 C        -6.3150440387        3.4359862570        0.7239785343
 O        -6.3784105893        4.0952209225       -0.2973964407
 C        -7.4958658831        3.4242148910        1.6541906040
 C        -8.4394143530        1.9862582301        1.1723563041
 O        -8.9792025875        2.0486287669        0.1080905833
 C        -8.8001225623        0.9269375075        2.1422122969
 C       -10.2900916464        1.0448746129        2.5260803437
 C       -10.7535338955       -0.2029294669        3.2909617026
 O       -10.0632255951       -1.1639582837        3.3296738071
 C       -12.0259904853       -0.2621258628        4.2640037742
 C       -12.8121287374        1.2789802461        4.3558118802
 O       -12.8341109048        2.1416496622        3.4907197344
 C       -13.1462614722        1.7144290483        5.7965049860
 C       -14.2372962617        2.7521412199        5.9014654412
 C       -13.7548065271        4.1162571931        5.2994477513
 O       -12.6569068532        4.3046829821        4.9708114131
 C       -14.8009404649        5.2388715896        4.7562598780
 C       -15.0322532351        4.4972281679        3.3596484219
 O       -15.8587206859        3.6286577510        3.3736377581
 C       -14.4190623162        4.9163271164        2.0202147822
 C       -14.1193652318        3.7577916523        1.2257164732
 C       -13.5615638735        3.9340637978       -0.1804344249
 O       -13.0037277020        3.1074446444       -0.7840530049
 C       -13.6154013732        5.4250582139       -1.0223099455
 C       -12.4873144270        6.1309448745       -0.3712973561
 O       -11.7031739397        5.5322492443        0.3605789535
 C       -12.2061144782        7.6848118366       -0.7549800353
 C       -13.3438002318        5.2509819921       -2.5320451100
 C       -15.0709484665        6.0561396633       -0.9384675896
 C       -16.0669699903        5.2784857989        5.5618136018
 C       -14.1677307469        6.6027710564        4.5564512382
 C       -13.0495740299       -1.1532462725        3.4470988298
 C       -11.6717197813       -1.0125483888        5.5879433371
 C        -6.9788707315        3.3606029309        3.2132690434
 C        -8.5275262254        4.4523318107        1.3768012606
 C        -1.9366576834        3.2121137872       -3.0054972367
 C        -3.6192127402        5.1571400896       -2.4201469891
 C        -8.2699492268        1.4140140225       -5.1185101464
 C        -8.4158937654        3.2527508633       -6.8244972091
 H       -11.4705784892        3.7634786850       -5.1255723947
 H       -10.2695127956        4.7940060842       -6.0417614568
 H       -10.8803132377        5.2257188705       -4.3769820065
 H        -6.4466116817        5.0345839797       -6.2255435734
 H        -5.8923386278        3.3683149510       -6.5769070209
 H        -4.5642394696        5.5273704631       -4.6163088877
 H        -4.0194196133        4.6583972454       -6.1273851618
 H        -3.3281502348        3.6272185672       -0.2267131684
 H        -3.3321021311        1.8295965848       -0.1246215285
 H        -4.5350822811        2.5724282821        1.8079153696
 H        -5.3735771078        1.4333976946        0.8106641413
 H        -8.0914364787        1.0229110690        2.9106393082
 H        -8.3774593720       -0.0310016526        1.6667789824
 H       -10.8407272068        0.9646411461        1.5299583806
 H       -10.4331281534        1.9744355990        3.0275837243
 H       -12.2070073386        1.9483052356        6.1432859142
 H       -13.3597195478        0.8174903717        6.4035529074
 H       -14.5366666146        2.8675803726        6.9522132882
 H       -14.9265450330        2.2743766959        5.2627543865
 H       -13.5996615817        5.4289814597        2.3084503421
 H       -14.9964949687        5.6709147339        1.5039990376
 H       -14.9497685683        3.1814053845        0.9076165706
 H       -13.4034468720        3.1611241532        1.7563851241
 H       -11.1528770351        7.7867356936       -0.8240359680
 H       -12.5295562873        8.1549546358        0.1343706224
 H       -12.6760986231        8.0660363570       -1.6841333798
 H       -12.8889929584        4.3301433381       -2.9903957920
 H       -12.6456946565        6.0495215821       -2.8279503357
 H       -14.3072142629        5.3271530911       -3.0375798662
 H       -15.6169524617        6.2549158410        0.0256987939
 H       -15.8534540642        5.4624992712       -1.5208699946
 H       -14.9792070827        7.0627438618       -1.3227076188
 H       -16.5682940235        4.3800326925        5.7553493113
 H       -16.7301075689        5.9388818861        5.0671262181
 H       -15.7925042047        5.7188209346        6.5022324883
 H       -14.1432828771        6.8720887427        5.6180959790
 H       -14.8290333605        7.2911074792        4.1101808894
 H       -13.2824115058        6.6670338182        4.0106959577
 H       -12.6515956000       -2.1584346734        3.2418220734
 H       -13.2471542756       -0.8302999085        2.4978117627
 H       -13.8220764107       -1.3062319831        4.1009420572
 H       -10.7064320788       -0.9928344088        5.9417647454
 H       -11.9679639915       -2.1148105436        5.6703858000
 H       -12.3583214427       -0.7822054549        6.4291482533
 H        -7.8305382660        3.8677398172        3.7293223445
 H        -6.1535615993        4.0268913880        3.3726103571
 H        -6.7031778623        2.2606816687        3.4538296477
 H        -8.9048960925        4.1687314470        0.3455586011
 H        -8.1596604237        5.4214338967        1.1810571484
 H        -9.3409923746        4.5484253084        2.0707349036
 H        -1.5011931417        3.8530062754       -3.7833681504
 H        -1.8287600413        2.2172570084       -3.5026501059
 H        -1.4966934338        3.1766838358       -1.9459681868
 H        -4.6581892624        5.5420842320       -2.2920529601
 H        -2.9636089460        5.9537810755       -2.9213209400
 H        -3.1064118853        5.3968208287       -1.4928105782
 H        -7.8487377890        1.1253160908       -4.1214413480
 H        -7.5697184227        0.9035699094       -5.7806588392
 H        -9.2699932693        0.9288150149       -5.2845979176
 H        -9.3762460344        3.5034086053       -7.3016765766
 H        -7.9285841101        2.4742922658       -7.4053260464
 H        -7.8229019442        4.0286892817       -6.9714550295
 Na       -7.6676321998        3.0300516800       -1.6979930072
