117

 C       -10.6868696117        4.1659484523       -5.3625752183
 C        -9.5385948197        3.6636381062       -4.5392954931
 O        -9.4144643486        3.7533418405       -3.3145088081
 C        -8.2799276002        2.9059398785       -5.2631010625
 C        -7.0357515137        3.6687120207       -4.6539063372
 O        -7.0064692720        4.2015001397       -3.5854585146
 C        -6.0121057446        4.0043912554       -5.7814415076
 C        -4.7233785619        4.5018450084       -5.0913310162
 C        -4.0514123253        3.3468664576       -4.2250513834
 O        -4.0414459583        2.2515916597       -4.6822979412
 C        -3.4787910589        3.6223795327       -2.8083378900
 C        -4.3124795399        2.7779560387       -1.8361629266
 O        -5.2975254355        2.1660334137       -2.1338412084
 C        -3.8462377473        2.8341991327       -0.3314100079
 C        -4.9990949130        2.4883353903        0.6094121607
 C        -6.1752008715        3.4544326994        0.4903289608
 O        -6.2406524152        4.3167510657       -0.3268370674
 C        -7.5382980875        3.2204479809        1.4984986650
 C        -8.3370805398        1.9549466635        1.2607378524
 O        -8.8195975009        1.9804495315        0.0971831412
 C        -8.8541247999        0.7879766752        2.1901083555
 C       -10.3172483918        1.0065744596        2.5065876719
 C       -10.7871842946       -0.1618855122        3.4104776165
 O       -10.1602146204       -1.1887270410        3.4449044682
 C       -12.1553821338       -0.0892994606        4.2142207030
 C       -12.7264886128        1.3067486052        4.3777280706
 O       -13.1334098707        1.9224208900        3.4190343940
 C       -13.2718581372        1.7442213533        5.8573622501
 C       -14.1981895777        2.8692009161        5.8628572195
 C       -13.6925575855        4.1580291836        5.2407049311
 O       -12.4752250757        4.3791187963        5.0143291869
 C       -14.8082890548        5.3096130958        4.8910158780
 C       -15.1464670645        4.5205374323        3.4799554731
 O       -15.8754620913        3.5992953011        3.4533181903
 C       -14.2249919620        5.0624645413        2.2368773179
 C       -14.1310934392        3.8671869537        1.1542891399
 C       -13.5208106719        3.9980991095       -0.2116360514
 O       -12.8911185049        3.0762033422       -0.7287180132
 C       -13.6587606036        5.4077996484       -1.0879500323
 C       -12.5001884194        6.1738047013       -0.3808898351
 O       -11.6783715419        5.6170665536        0.3349633090
 C       -12.1726500362        7.7289931232       -0.8096765871
 C       -13.4038056653        5.1815300513       -2.5013200465
 C       -15.1220618915        5.9977779677       -0.9159777278
 C       -16.0774148965        5.3713137298        5.6544628281
 C       -14.1543182324        6.6386639013        4.5595075244
 C       -13.2424511681       -0.9674691165        3.5594627971
 C       -11.8043114787       -0.6909698453        5.5461043415
 C        -7.1176622202        3.5112506026        3.0525544291
 C        -8.4276932993        4.4606497820        1.2103551082
 C        -1.9565801817        3.1323953961       -2.8867691917
 C        -3.7407273343        5.0364643816       -2.2712182350
 C        -8.4090219689        1.4219420781       -5.1066502939
 C        -8.5162690619        3.0343317828       -6.8716374501
 H       -11.0329997028        3.3759794829       -5.9217018665
 H       -10.0914916801        4.8539848208       -5.9009066732
 H       -11.4132419914        4.5471475502       -4.7401070007
 H        -6.4844391625        4.6834898977       -6.5038068551
 H        -5.7256187516        3.1753453373       -6.3491666650
 H        -4.7630934483        5.4114301119       -4.5323479078
 H        -4.0194315899        4.6204681560       -5.9826315963
 H        -3.4006224423        3.7951868331       -0.2842619366
 H        -3.0051587043        2.1033997287       -0.1795719393
 H        -4.7564244363        2.4636410924        1.6606980965
 H        -5.2854805053        1.3942681378        0.3940353340
 H        -8.1876398215        0.5422953907        2.9690921632
 H        -8.6685010549       -0.1096146626        1.5666600736
 H       -10.8938359857        0.9599338433        1.5814576013
 H       -10.4537443807        1.9833021979        3.0685275695
 H       -12.4316213915        1.9853646389        6.4681405422
 H       -13.5903339757        0.8365714568        6.3674224848
 H       -14.4080711786        3.1269983156        6.8275523104
 H       -14.9991911388        2.4462055314        5.2191536063
 H       -13.3346195138        5.6274696000        2.5747052714
 H       -14.8546247195        5.9194266148        1.8351331989
 H       -15.0521397478        3.4170274634        0.8272507014
 H       -13.3997748950        3.0630702934        1.6138508935
 H       -11.1901353855        7.7262905812       -1.1486206103
 H       -12.3913264822        8.4311509781       -0.0540821462
 H       -12.7508615229        7.9204471103       -1.7726641034
 H       -12.7450686149        4.2741413610       -2.7295158181
 H       -12.8019405064        5.9540942975       -2.9603036189
 H       -14.3218885924        4.9932006048       -2.9945405844
 H       -15.6051886836        6.0484154918        0.0452477044
 H       -15.7896751097        5.4923882513       -1.5468479021
 H       -15.0446098177        7.0589083296       -1.2553756566
 H       -16.7063996304        4.4416194618        5.8956738443
 H       -16.6607053146        5.9755435502        5.0672633369
 H       -15.8785313616        5.8774173912        6.5303789684
 H       -14.3898435805        7.2971601765        5.4443394497
 H       -14.5967275432        7.0810731467        3.6830433669
 H       -13.0354516432        6.5459998892        4.2384905568
 H       -13.0292288316       -1.9444107130        3.6286332993
 H       -13.3766170798       -0.8119790503        2.4668060636
 H       -14.1400827304       -0.7958907382        4.2023616748
 H       -10.9400227631       -0.1815791319        6.0739392361
 H       -11.4293377814       -1.5924317636        5.3543920301
 H       -12.5045021007       -1.1202151451        6.2786193656
 H        -8.0028892571        4.0852910576        3.3959991781
 H        -6.3064280563        4.2851860545        3.1073710482
 H        -6.8721429396        2.6118718954        3.5438800788
 H        -8.7131137251        4.5348400296        0.2113451028
 H        -7.8283223883        5.3507510957        1.3866324951
 H        -9.3887240576        4.4691212186        1.7991324115
 H        -1.5968614520        3.6811309072       -3.7482982349
 H        -1.8344434763        2.0086667114       -3.2531813901
 H        -1.3976580947        3.2882367557       -1.8800300832
 H        -4.8038764906        5.5023179838       -2.3610720106
 H        -2.9277324657        5.7331372473       -2.7586639415
 H        -3.3411148303        5.3842368472       -1.2773296101
 H        -8.4255917566        1.1451210763       -4.0502641045
 H        -7.5035694760        0.9650028719       -5.3756348835
 H        -9.2359726506        0.9775578484       -5.6576005275
 H        -9.5366612200        3.0750242313       -7.1499781806
 H        -8.0329775583        2.2166433051       -7.3366653461
 H        -7.9734436919        3.9462443190       -7.2847405584
 Na       -7.4975891576        3.1533706132       -1.7014042930
