117

 C       -10.7662591473        3.9791817969       -5.4874423785
 C        -9.5661739579        3.5629559613       -4.6103573775
 O        -9.5776929116        3.6287212892       -3.4098819273
 C        -8.3601571056        2.8653207108       -5.3135671600
 C        -7.1209579940        3.6399253431       -4.8878949716
 O        -6.9218823157        4.0490067486       -3.7680844724
 C        -5.8147576696        3.8786450415       -5.8436087819
 C        -4.6864931418        4.4191982019       -4.9874772441
 C        -4.0638046414        3.2783188951       -4.1864396220
 O        -3.9237822684        2.1892035089       -4.7036221056
 C        -3.4904268566        3.6452726433       -2.7823415118
 C        -4.2530837901        2.6597510472       -1.7534067415
 O        -5.3145426281        2.1134879751       -2.0091346754
 C        -3.8246848537        2.7862358156       -0.2396975218
 C        -5.0243938703        2.3586878498        0.5909206619
 C        -6.1520014456        3.4471737334        0.5621399600
 O        -6.0779338100        4.4334414529       -0.1638687555
 C        -7.4673286949        3.3385376871        1.3925549040
 C        -8.3167041420        2.0229017038        1.0596045578
 O        -8.5491576638        1.7431228782       -0.1201271407
 C        -8.8210925380        0.9374995636        2.1564618970
 C       -10.3358998962        1.0562274513        2.5061912863
 C       -10.8745887164       -0.1870478348        3.4139762881
 O       -10.2193651207       -1.2196239832        3.5292890567
 C       -12.2113540112       -0.0504769273        4.2865300774
 C       -12.9024450802        1.2988160776        4.3957003668
 O       -13.3422368038        1.8139380403        3.3936236166
 C       -13.3278626701        1.8348692846        5.8141784207
 C       -14.2096048829        3.0620388184        5.8872418674
 C       -13.6135093333        4.3493897374        5.3734789408
 O       -12.3885676955        4.4445706842        5.1195664848
 C       -14.7390518598        5.3605104155        4.7753170027
 C       -15.0949215988        4.6229972880        3.3726856956
 O       -15.8930432979        3.6559047568        3.4081914911
 C       -14.1462686309        4.9819420202        2.3232523011
 C       -14.3256238483        3.8143096777        1.1671755763
 C       -13.5506733747        4.0552862526       -0.1703867397
 O       -12.8754308015        3.1419683370       -0.6687960170
 C       -13.7103432636        5.3800460123       -1.0854863494
 C       -12.4617009050        6.2628498971       -0.5148012320
 O       -11.7073453229        5.8243526857        0.3171625160
 C       -12.2265869342        7.6774956029       -0.8897189783
 C       -13.3241481189        5.0607152665       -2.5446601122
 C       -15.0454617056        6.0031183161       -0.8289622688
 C       -16.0044024263        5.3841311081        5.7563708746
 C       -14.0987140739        6.7186115180        4.6891828533
 C       -13.3970486344       -0.7937409898        3.5997568564
 C       -11.8247983466       -0.5807018580        5.7234230880
 C        -7.0777525610        3.4745329424        2.9351882353
 C        -8.3814057313        4.5483608419        1.0122934619
 C        -2.0951822880        3.1856747874       -2.6825885959
 C        -3.6552561278        5.0493691031       -2.3644926594
 C        -8.4521815669        1.3786692917       -4.8007442993
 C        -8.5139556274        2.9418765832       -6.8868763518
 H       -10.8785036532        3.2153770486       -6.2663739562
 H       -10.5721973026        4.9591124875       -5.8273278377
 H       -11.5357972074        3.8566698894       -4.7744764706
 H        -6.0661078979        4.4864108570       -6.6921426039
 H        -5.4399780581        2.9931600368       -6.2977337588
 H        -5.0479895762        5.1002370274       -4.2505312538
 H        -3.9212982713        4.9404183496       -5.5967673036
 H        -3.4853937197        3.8064317194       -0.2094241671
 H        -2.9551101983        2.1408899227       -0.2062524616
 H        -4.8648767566        2.2883651441        1.6688794596
 H        -5.3210490461        1.3704048961        0.2702589858
 H        -8.1150855952        0.8852512324        3.0498938591
 H        -8.5511588221        0.0000081818        1.7863566237
 H       -10.9785137185        1.1896704413        1.6540125321
 H       -10.4532703306        1.8585960343        3.3149091460
 H       -12.4165954653        2.1114154591        6.4992649880
 H       -13.6471857359        0.9750384848        6.3344308182
 H       -14.4825843816        3.2411864089        6.9289484277
 H       -14.9953480295        2.8012239631        5.1589662539
 H       -13.0746585279        5.1505878535        2.8138200570
 H       -14.3695346740        6.0589739628        2.0739575063
 H       -15.3433460226        3.5029991251        0.7562215887
 H       -13.7742647823        2.9745814935        1.5578257628
 H       -11.2329178986        7.8669303996       -1.3854290912
 H       -12.5014407111        8.2914572209       -0.0012655649
 H       -12.9275002405        7.8581256915       -1.6436991059
 H       -12.4370999201        4.4920087722       -2.5178888008
 H       -12.9739035545        5.9080834248       -3.1112580830
 H       -14.0771432066        4.4987828671       -3.1127509552
 H       -15.4004577275        6.0682374890        0.1650739754
 H       -15.7248666317        5.4506489496       -1.4148043312
 H       -15.0358145749        7.0094825368       -1.2450675800
 H       -16.5173814953        4.4628723235        5.9578030090
 H       -16.7824011962        6.0882168030        5.3157216599
 H       -15.6117464007        5.8302890349        6.6938791299
 H       -14.5683343256        7.3164200703        5.4829488175
 H       -14.3329612394        7.1738404413        3.6327653228
 H       -12.9650808011        6.6915892740        4.6522829308
 H       -13.2953110451       -1.9324673232        3.5247107287
 H       -13.3269851305       -0.4535405773        2.5230021544
 H       -14.3612700407       -0.5271109049        4.1081903545
 H       -11.5405601591        0.2355130996        6.4207831753
 H       -10.8953728370       -1.2005573584        5.7735087796
 H       -12.3415305629       -1.3255881014        6.1973840316
 H        -7.9654746911        3.6832418676        3.4368791016
 H        -6.3923788812        4.3243239728        3.0860079776
 H        -6.6436606774        2.5597634544        3.1682442646
 H        -8.5481644607        4.6343250865       -0.0388162707
 H        -8.0208556455        5.5768000368        1.3514465833
 H        -9.3821437390        4.2794613292        1.3875792200
 H        -1.5346061767        3.6948683948       -3.5517234197
 H        -2.0139823268        2.1101035801       -2.8265293086
 H        -1.6944896591        3.4531636090       -1.7258406468
 H        -4.7316287555        5.2997942793       -2.3339772351
 H        -3.1252846021        5.7532930374       -2.9885965568
 H        -3.1912064573        5.4476072439       -1.4190625441
 H        -8.7481604260        1.3573787655       -3.7983758424
 H        -7.4280027311        0.9928556027       -4.6731013328
 H        -9.0734144652        0.7610007761       -5.3949669480
 H        -9.2514280965        2.2150137434       -7.1983704794
 H        -7.5110024230        2.6574064018       -7.2389677761
 H        -8.7439060323        3.9792737240       -7.3322634106
 Na       -7.5823563421        3.1705334710       -1.8032616404
