117

 C       -10.9839710971        3.8847366065       -5.5017725923
 C        -9.6785766053        3.4106869260       -4.6458145378
 O        -9.7306783779        3.5730226925       -3.4541229833
 C        -8.3440693729        2.8038843216       -5.4010403626
 C        -7.0389254406        3.5219932738       -5.0692032244
 O        -6.8920874826        3.9028490450       -3.8849674657
 C        -5.7740674579        3.7401468514       -5.8941737478
 C        -4.6731775027        4.3708459951       -5.1152463997
 C        -4.0227120749        3.2367525671       -4.1677302497
 O        -3.8122638239        2.1300769673       -4.6788148777
 C        -3.5054605452        3.5908899636       -2.6824567918
 C        -4.4500028393        2.8141997460       -1.5894563349
 O        -5.3298698434        2.0521981550       -1.9737463195
 C        -3.9688804677        2.6280241841       -0.0931687465
 C        -5.1303334524        2.3335446821        0.7591380172
 C        -6.1787171119        3.4903968245        0.6485088105
 O        -5.7964354271        4.4252586974       -0.0795541738
 C        -7.5638240167        3.2900563755        1.3821320998
 C        -8.2772233581        1.9647945964        0.8996064064
 O        -8.2463962522        1.6383592074       -0.2422748479
 C        -8.8490044461        1.1677559611        2.0640081196
 C       -10.3480881495        1.1610819655        2.5792786801
 C       -10.8544628221       -0.1087474126        3.4815577415
 O       -10.2549916312       -1.1248925746        3.4554641368
 C       -12.2462490268        0.0367336828        4.3489415600
 C       -13.1005904420        1.3851715438        4.4315528073
 O       -13.4622188330        1.9307467188        3.3995835431
 C       -13.2507365058        1.9548610900        5.8425605393
 C       -14.2549457281        3.0762699976        5.9292987491
 C       -13.6168147587        4.3480318757        5.3198606840
 O       -12.4971023593        4.6307418652        5.2817823892
 C       -14.5988500472        5.4166824567        4.8046184282
 C       -14.9346762853        4.6564506694        3.4053117908
 O       -15.9200127447        3.9298440981        3.3774334165
 C       -14.0099797251        4.7837034797        2.1741565090
 C       -14.4639999468        3.8162618064        1.0873736478
 C       -13.5635751139        4.0142810316       -0.1930965938
 O       -12.8674302819        3.1200903581       -0.5301578147
 C       -13.6069955450        5.3635203453       -0.9569459771
 C       -12.4779689725        6.3706286092       -0.4439262764
 O       -11.6930293269        5.8950026938        0.3475396162
 C       -12.4135721114        7.8099288180       -1.1190348505
 C       -13.2842976493        4.9736161738       -2.4792542069
 C       -14.9574067557        6.1226023603       -0.8996183651
 C       -15.8650809663        5.4049496471        5.7969896138
 C       -14.0425605776        6.8676397518        4.7308094690
 C       -13.3586853968       -0.9232889455        3.6838937628
 C       -11.8615353144       -0.6191309135        5.8224565134
 C        -7.0744393561        3.3640329879        2.8357970033
 C        -8.4130857322        4.5406386322        0.9108685568
 C        -1.9188636546        3.1537585129       -2.5452111821
 C        -3.5940126917        5.1240665606       -2.4509784077
 C        -8.2775119961        1.4386258399       -4.5935894256
 C        -8.4602092053        2.7574777550       -6.9662311545
 H       -11.1020630330        3.1965187347       -6.3746668645
 H       -10.8747297455        4.9754855687       -5.7215383531
 H       -11.7837969286        3.6067898557       -4.7511243047
 H        -6.1336074552        4.3812195696       -6.6905792499
 H        -5.4739594463        2.8222149020       -6.4877305395
 H        -5.1639299830        5.0869595159       -4.3954899109
 H        -3.9790860673        4.9095657216       -5.6758512873
 H        -3.3713150090        3.4996186553        0.2228178826
 H        -3.2792441988        1.8487709518       -0.4161473730
 H        -4.8278442866        2.2028390839        1.8233489486
 H        -5.5975553884        1.4435985357        0.4724774594
 H        -8.1448109311        1.3772383257        2.8883031262
 H        -8.5419983072        0.1214431509        2.0219574754
 H       -11.0384157670        0.9041905082        1.7407036887
 H       -10.6834108885        2.0155347829        3.1265157300
 H       -12.3065519460        2.2818812462        6.3699251309
 H       -13.4502344796        1.0204081877        6.3871766946
 H       -14.3419185713        3.4109594135        7.0499358453
 H       -15.1220177702        2.7221654540        5.4181790493
 H       -12.9519679773        4.6355688840        2.4336699688
 H       -14.0268283137        5.8279752960        1.8195150249
 H       -15.4882981073        4.0508851195        0.6870170375
 H       -14.3339840325        2.8389707793        1.3905127867
 H       -11.4402119184        7.9371658066       -1.6734267308
 H       -12.5574018983        8.4933406693       -0.2378510388
 H       -13.1924464215        8.0018199986       -1.8460843446
 H       -12.3076225466        4.6935943553       -2.7494727561
 H       -13.4818309729        5.8034431761       -3.1442789966
 H       -14.0376859749        4.2100464419       -2.7499317045
 H       -15.2417621104        6.3375789726        0.1345900700
 H       -15.6978533707        5.3913232608       -1.3453943306
 H       -15.0377723537        7.0193802165       -1.4806583839
 H       -16.4190945223        4.5124640154        5.6814650746
 H       -16.6429805438        6.1955404254        5.4862036413
 H       -15.5482402400        5.5270398439        6.9050068910
 H       -14.5010913082        7.4157490633        5.5638802516
 H       -14.3475912958        7.2753183516        3.7231588363
 H       -12.9724974109        6.9173723020        4.7155525942
 H       -12.9436486243       -2.0118906282        3.4563143156
 H       -13.4698146923       -0.4859182440        2.6580717557
 H       -14.3443328504       -0.9356403517        4.1935896367
 H       -11.8319786076        0.0471153389        6.5938109505
 H       -10.9662745716       -1.2870605591        6.0994884731
 H       -12.5708222864       -1.3710557677        6.1220212657
 H        -7.8274645418        3.1711667345        3.5519612695
 H        -6.6750377690        4.2927464062        2.9333236975
 H        -6.2817130592        2.5942503019        2.8664724257
 H        -8.5210296947        4.5697151317       -0.2555879360
 H        -7.9490301520        5.5086761793        1.1873365189
 H        -9.4453561097        4.4122815961        1.1918177023
 H        -1.4072090021        3.8324846203       -3.2649320425
 H        -1.6781156859        2.1646633049       -2.6625340576
 H        -1.5965332229        3.4611373231       -1.5825007318
 H        -4.5326970306        5.4301409223       -2.1607031013
 H        -3.3759577948        5.7264908420       -3.2967636847
 H        -2.9635274132        5.4810542210       -1.6987395507
 H        -8.6118336206        1.5367681563       -3.5582823239
 H        -7.2339863982        1.0892580197       -4.4375934177
 H        -8.9230798848        0.7152419274       -5.0795353672
 H        -8.6709120177        1.6629472147       -7.2341570865
 H        -7.4466894613        3.0632594100       -7.3421590446
 H        -9.2062579844        3.3441921202       -7.4001219038
 Na       -7.7705394368        3.1298669710       -1.9514985888
