117

 C       -10.9031570214        3.5295481742       -5.5932872156
 C        -9.6541349261        3.1748714558       -4.7691041197
 O        -9.6594788665        3.4925279018       -3.5776805259
 C        -8.3558538322        2.5733621443       -5.4441807431
 C        -7.0712379092        3.4939109454       -4.9193289049
 O        -6.9494213655        3.9354300069       -3.8285632239
 C        -5.8346009679        3.5645624597       -5.9043550207
 C        -4.5338261053        4.0973857265       -5.2314631514
 C        -3.9406473938        3.0807806209       -4.1788770646
 O        -3.5943449308        1.9682032768       -4.3762646865
 C        -3.4800475390        3.5493684936       -2.5715791263
 C        -4.5012773823        2.8270878101       -1.6701856382
 O        -5.6109598927        2.4295548822       -2.0110913541
 C        -3.9029799012        2.3855423269       -0.3224170631
 C        -5.0374231710        2.2686852672        0.7022246164
 C        -6.1482316855        3.4159495081        0.6419809458
 O        -5.9189033672        4.4043785189        0.0318138219
 C        -7.6955292082        3.2878535729        1.4912255773
 C        -8.3077879864        1.9516509132        1.0444725266
 O        -8.1223240737        1.4637620489       -0.1212242309
 C        -9.1199517201        0.9761285269        1.9520983207
 C       -10.4886991817        1.4933348018        2.4012093487
 C       -10.9943087492        0.2376810013        3.3467427748
 O       -10.1794059688       -0.6898987399        3.3573977778
 C       -12.2013444749        0.0258993125        4.3488626467
 C       -13.0022930858        1.3707395370        4.5494601161
 O       -13.3855628972        2.0553061728        3.6033129811
 C       -13.0945435688        1.9867406608        6.0793040229
 C       -14.0852447559        3.1840107041        5.9903464323
 C       -13.5431687432        4.5149414178        5.4837231673
 O       -12.2966204969        4.8016980392        5.6324874062
 C       -14.4926891142        5.4794619409        4.8349397924
 C       -15.0557526643        4.7821236789        3.3840419790
 O       -16.1911844547        4.4528704060        3.2153644057
 C       -13.9304027791        4.6951921903        2.3643235967
 C       -14.6100301871        4.0262184098        1.0719804493
 C       -13.6092179101        4.1668191829       -0.0856760440
 O       -12.8847742947        3.1608511721       -0.3204474666
 C       -13.6053686957        5.3397280510       -0.9992587356
 C       -12.4095868127        6.4849559167       -0.5815126657
 O       -11.6969844674        6.2365378919        0.3613314390
 C       -12.5338406300        7.8074351583       -1.3061430478
 C       -13.1746204191        4.9792164226       -2.5484973374
 C       -14.9529656945        6.0211617429       -0.9853405262
 C       -15.9371465835        5.7616252143        5.5977900823
 C       -13.8490479501        6.9589641517        4.5708234171
 C       -12.9811640415       -1.1038873428        3.4468133105
 C       -11.7054140275       -0.5728563827        5.7181512488
 C        -7.5166804276        3.5716786708        3.0145556761
 C        -8.5462962906        4.4484988660        0.9068907364
 C        -2.0279084034        3.0521761590       -2.4562049100
 C        -3.5938302842        5.0136528335       -2.2520248750
 C        -7.9412118349        1.1896534123       -4.7659275875
 C        -8.5499488920        2.2058647988       -6.8962860057
 H       -11.0907323515        2.8397598814       -6.4301738627
 H       -10.5030175326        4.4788996422       -5.9524310888
 H       -11.7787802383        3.6320051079       -4.9855183102
 H        -6.0600395974        4.0025536341       -6.9300379719
 H        -5.7791211282        2.5270798282       -6.1964800928
 H        -4.5664855813        5.1295618123       -4.9900932577
 H        -3.6326726704        4.0410216377       -5.9665344055
 H        -3.0587734655        2.9791586803        0.0283148826
 H        -3.4943441888        1.3983924713       -0.6662162007
 H        -4.5034734154        2.0707247661        1.6275744218
 H        -5.7278961085        1.3653709861        0.4608765343
 H        -8.4773124378        0.5477160081        2.7216383363
 H        -9.2594813696        0.0325394516        1.4313553435
 H       -11.2749194301        1.6798823933        1.7032395885
 H       -10.5023181456        2.2648014047        3.2469362655
 H       -12.1226165192        2.4436617199        6.2154381585
 H       -13.1274063935        1.3071568970        6.9048294256
 H       -14.4709728783        3.3844631200        6.9392246095
 H       -14.8410276172        2.8278518662        5.2378970767
 H       -13.2414921778        3.9517529143        2.7788115466
 H       -13.4247728274        5.6409127858        2.3263380413
 H       -15.5348529754        4.5828280170        0.8803565643
 H       -14.7161587455        2.9231822004        1.2213656891
 H       -11.5363122285        7.9360245736       -1.6946507378
 H       -12.8519075398        8.5866482270       -0.6397234582
 H       -13.1259101202        7.6979290310       -2.1876817768
 H       -12.0633104324        4.8022164970       -2.5149438069
 H       -13.3387901796        5.6791522813       -3.4008050563
 H       -13.7200639960        4.0997297556       -2.9107991176
 H       -14.9714890078        6.6543365731       -0.0556270037
 H       -15.7768778482        5.3205540341       -0.9234032797
 H       -15.1734767128        6.6102672029       -1.9645558210
 H       -16.6702628228        5.0822465054        5.1153956791
 H       -16.2979780770        6.7428253139        5.4214745786
 H       -15.9446010153        5.5981421205        6.6249339743
 H       -13.5042882675        7.5024971804        5.3925481235
 H       -14.4830622263        7.4738777788        3.8818076044
 H       -12.9387923490        6.6840607513        4.0300086339
 H       -12.3686529229       -1.9446291479        3.2641485440
 H       -13.4259173674       -0.7226596481        2.5481778312
 H       -13.8538779154       -1.3524640068        4.0027988069
 H       -10.6489191838       -0.1710103535        5.9588178650
 H       -11.5929396670       -1.6097985150        5.7906700111
 H       -12.1624878948       -0.4397122178        6.6986578527
 H        -8.5280440321        3.8170054350        3.4523948320
 H        -6.7058491182        4.4223239167        2.9858227314
 H        -7.1671142430        2.6489751138        3.4556471179
 H        -8.8225108061        4.3561764047       -0.0759559550
 H        -7.7910363813        5.2421364228        0.9070864062
 H        -9.5326022190        4.6538680978        1.3778659320
 H        -1.2891288117        3.7462871345       -2.9219222117
 H        -2.1930304555        1.9638219733       -2.7024413654
 H        -1.5797037180        3.0337681303       -1.4327628395
 H        -4.6698350243        5.3905497834       -2.4138507820
 H        -3.1207116597        5.7515910660       -2.9334562289
 H        -3.5289270061        5.1873535563       -1.1063046420
 H        -7.5821784003        1.1403014499       -3.7270921297
 H        -7.1011802300        0.7388519319       -5.3643646138
 H        -8.8906103386        0.5975772938       -4.8288261229
 H        -8.2478781143        1.2548986617       -7.1353493696
 H        -8.1509935518        2.8796256328       -7.5862801125
 H        -9.6707520432        2.2030681516       -6.9129879415
 Na       -8.0467157753        2.9045012518       -2.0809264524
