117

 C       -10.6950624995        3.3652233787       -5.6933370573
 C        -9.4677473676        3.0377090127       -4.7177216127
 O        -9.6391565257        3.3650021768       -3.5337709796
 C        -8.2844935629        2.3296654900       -5.3561835356
 C        -7.0344136124        3.3028762101       -5.0121605210
 O        -7.1366829246        4.0474351898       -4.0390155287
 C        -5.7261958841        3.3446337260       -5.8364004384
 C        -4.4773269612        3.9036897918       -5.1437726575
 C        -3.8654988980        3.0177771624       -4.1656843145
 O        -3.6451791169        1.8143085304       -4.3924229795
 C        -3.5260858612        3.4620872031       -2.6877303439
 C        -4.5794406119        2.7769274061       -1.7536788765
 O        -5.7689153905        2.6939536325       -2.0938329801
 C        -4.0841813674        2.3623290717       -0.3238454087
 C        -5.3047322101        2.1806244193        0.7444542370
 C        -6.2381177224        3.3508534630        0.8198087735
 O        -6.0805516546        4.3514856265        0.0926671007
 C        -7.6094007613        3.2991012928        1.5052130262
 C        -8.3418942475        1.9652502088        0.9721581202
 O        -8.1491779959        1.6080170525       -0.1828030371
 C        -9.2612293618        1.0945076755        1.8481751835
 C       -10.5098225653        1.5504312306        2.5766063129
 C       -10.8537026505        0.3218804313        3.4564468517
 O       -10.1045606510       -0.6260795541        3.3723383661
 C       -12.0969992222        0.0914138389        4.3547852775
 C       -12.8938739543        1.3833968988        4.6284445547
 O       -13.3386812524        1.9714748485        3.6580257070
 C       -13.0732974865        2.0475437154        5.9211687150
 C       -14.0378935027        3.1912345167        6.0405122393
 C       -13.5545541755        4.5774553919        5.5424410937
 O       -12.4260847295        4.9266964814        5.7301136517
 C       -14.5773521649        5.5180300891        4.7274605997
 C       -14.9917915298        4.9401523077        3.4312963133
 O       -16.2114567604        4.7866924619        3.2199665380
 C       -13.8763728140        4.6906894749        2.4830145239
 C       -14.5916111168        4.0446534665        1.0882690499
 C       -13.5445293967        4.1578064151       -0.0511758117
 O       -12.8393657288        3.2141215004       -0.2472844414
 C       -13.5314571191        5.4621558532       -1.0252400433
 C       -12.5559186548        6.4958461294       -0.6212843391
 O       -11.8200900265        6.2782163822        0.2772816194
 C       -12.4914018082        7.9072135589       -1.4377253143
 C       -13.0835766450        4.9377077667       -2.4980679483
 C       -14.9747068000        6.0783745105       -1.1424537580
 C       -15.8128073919        5.9931996815        5.6351183006
 C       -13.7812034542        6.8016123325        4.4463741632
 C       -12.9919366427       -0.8461870672        3.4221932782
 C       -11.4477223707       -0.5550446446        5.5191871973
 C        -7.6606229673        3.5375630651        3.0498025193
 C        -8.5606708895        4.3367742012        0.8350560616
 C        -2.0489471755        3.0240859044       -2.5078582028
 C        -3.7133148403        5.0086653881       -2.2264613183
 C        -7.9198507447        0.9551916937       -4.6419097496
 C        -8.3887762388        2.2438177114       -6.9415933185
 H       -11.1335964631        2.4517046893       -6.0203233562
 H       -10.4237851084        3.9824003239       -6.4605647998
 H       -11.3455342695        3.8085563837       -5.0038457419
 H        -5.9363219610        4.1661320502       -6.4960799549
 H        -5.7714040451        2.5359217900       -6.5141424733
 H        -4.8583078551        4.8367125825       -4.7060349017
 H        -3.7167388168        4.2868343861       -5.8602771450
 H        -3.2884642883        3.0378428849        0.0021995076
 H        -3.6113928246        1.3632405658       -0.4296180702
 H        -4.6090628408        2.1307190826        1.6300113440
 H        -5.8787030099        1.2513207633        0.6453739414
 H        -8.4575815781        0.7419642680        2.5868532350
 H        -9.4043548966        0.1747854746        1.4012982212
 H       -11.4609776075        1.5942401789        2.0235390267
 H       -10.4522527691        2.5239264552        3.1688094355
 H       -12.0371849704        2.2257972544        6.3618655560
 H       -13.4208961893        1.3174684622        6.5785871718
 H       -14.1817029691        3.1271585592        7.1226720506
 H       -14.9092253139        2.8171534260        5.5503104247
 H       -13.0056626362        4.0374106661        2.9488482615
 H       -13.5459744514        5.7468229698        2.4286583391
 H       -15.5648063880        4.7062465243        0.9808343311
 H       -14.7530737832        3.0043593790        1.1468997228
 H       -11.4905320266        8.2494852867       -1.7664679707
 H       -13.0684745222        8.6373652095       -0.8839123044
 H       -12.9550106495        7.6729634057       -2.3111894029
 H       -12.1243092085        4.5044890670       -2.3346879523
 H       -13.0179095861        5.5772562571       -3.3956461219
 H       -13.8394695110        4.1645388459       -2.8430299005
 H       -15.2341232633        6.5289908067       -0.1855189385
 H       -15.6846434581        5.2707951035       -1.3573989665
 H       -15.0670486677        6.7262097427       -1.9839687517
 H       -16.5585172075        5.3606469011        5.5082977435
 H       -16.1720117955        7.0427043814        5.5540761104
 H       -15.4340680440        5.8836731449        6.6458673122
 H       -13.1309801311        7.0749116438        5.3054917170
 H       -14.5067048893        7.6301558944        4.0826180867
 H       -12.9560545915        6.6118591934        3.7577558542
 H       -12.3625079968       -1.8094043263        3.2854740239
 H       -13.4293209533       -0.4310629513        2.5770216109
 H       -13.8642868825       -1.0656915860        3.9440379982
 H       -10.4096016462       -0.5704985901        5.6012523062
 H       -11.7735420184       -1.6797720387        5.7042758430
 H       -11.6588467079       -0.1525584711        6.4676704772
 H        -8.6634085697        3.8319475687        3.3141075372
 H        -6.8890684931        4.2768852392        3.1655396561
 H        -7.4731841860        2.5492035510        3.5799953258
 H        -8.9251665387        4.0053400344       -0.1313711656
 H        -7.9830515179        5.2379049246        0.6337861759
 H        -9.4482674918        4.4485062735        1.3354709933
 H        -1.2814209096        3.7677696280       -2.9914138239
 H        -2.0310853700        1.9489526303       -2.5770958573
 H        -1.7054323567        3.2454971914       -1.4685108908
 H        -4.6115058776        5.6527561609       -2.5998934609
 H        -2.9463188158        5.7473023327       -2.5397362811
 H        -3.9811483022        4.9332523706       -1.0872440386
 H        -7.5086824901        1.0960498154       -3.6785478729
 H        -7.1471846217        0.3409291440       -5.1845769693
 H        -8.8527319564        0.4629830636       -4.4778814178
 H        -7.4379955224        1.9060257584       -7.3984611725
 H        -8.5721135554        3.2480484596       -7.3353509111
 H        -9.2161257794        1.6327681189       -7.1278992829
 Na       -8.0740965481        2.7158835609       -1.9403864833
