117

 C       -10.4803930405        2.6541151703       -5.9706077657
 C        -9.4655978117        2.1410037074       -4.9319903562
 O        -9.6583098283        2.1291897333       -3.7486071846
 C        -8.0799807400        1.7260370786       -5.5527368065
 C        -6.9723003869        2.9112836185       -5.2614029275
 O        -7.1833600678        3.8269143765       -4.4944420530
 C        -5.6142279842        2.8433739150       -6.0404380443
 C        -4.4865280284        3.4466585914       -5.1485405787
 C        -3.8529346479        2.6017810575       -3.9253519604
 O        -3.6523387973        1.4651595639       -3.9994305320
 C        -3.4311606432        3.3685080009       -2.4925123368
 C        -4.6798906281        2.7883095188       -1.6631307386
 O        -5.6788581667        2.5197786280       -2.3023454789
 C        -4.5344935278        2.5940621406       -0.1116822414
 C        -5.8485263333        2.2645721376        0.5967731507
 C        -6.6939539783        3.5975368094        0.6551876361
 O        -6.2189923213        4.5721662288        0.1735423154
 C        -8.1381704462        3.4277217441        1.3845000243
 C        -8.8967090691        2.1270889531        0.8031993225
 O        -9.3114167592        2.1274262290       -0.3203843165
 C        -9.3000294971        0.8641034380        1.7695653017
 C       -10.4269297931        1.1112238302        2.6966835246
 C       -10.6609732186        0.0840242693        3.9117341920
 O        -9.8800068440       -0.8144851597        4.2030473308
 C       -12.1129462100        0.2473908955        4.6604264292
 C       -12.7064974711        1.6862346118        4.5855673460
 O       -12.5683549504        2.3704299030        3.5768800591
 C       -13.4488734785        2.2471762517        5.9230184154
 C       -14.2561980898        3.5321704743        5.7142683165
 C       -13.3678966190        4.7626766528        5.4713280157
 O       -12.1822279853        4.9407534216        5.7783891163
 C       -14.2261138395        6.0662674762        4.8587867881
 C       -14.7874421943        5.6061329823        3.4851085337
 O       -15.9068191636        5.6634060562        3.0945482856
 C       -13.7228195978        5.1976569256        2.4750742428
 C       -14.3558608391        4.7063280723        1.1544586459
 C       -13.4357551282        4.4772714641       -0.0213511111
 O       -12.6421070337        3.5508026459        0.0286318460
 C       -13.6194022459        5.4272701066       -1.2899003460
 C       -12.6945726244        6.6183090786       -0.7309684833
 O       -12.1663487372        6.5231904299        0.3814047413
 C       -12.6006981319        7.8496288025       -1.6236060826
 C       -12.8914666992        4.7584380364       -2.4261544807
 C       -14.9987016035        5.7570193177       -1.6713306731
 C       -15.3955898487        6.3113670120        5.8792143709
 C       -13.2627708357        7.1944592629        4.7231300626
 C       -13.2685661296       -0.6813196600        3.9474420088
 C       -12.0030846775       -0.4161884791        6.1050097216
 C        -7.7396889902        3.3065933667        2.8590861894
 C        -9.0465345241        4.5201673879        0.7813733847
 C        -1.9726969890        2.7887330729       -2.0986495197
 C        -3.3102636724        4.9051178440       -2.2596603309
 C        -7.3297556163        0.6476017589       -4.5937387344
 C        -8.1440677299        1.3175818318       -7.0818850885
 H       -10.8419612163        1.8119620426       -6.4361985621
 H        -9.9378808383        3.3304667621       -6.6470623829
 H       -11.2414980550        3.1564178722       -5.4385750324
 H        -5.8288142071        3.3763159471       -6.9073084695
 H        -5.3448168884        1.8500789495       -6.4382657419
 H        -4.8902946985        4.4093011998       -4.6857103066
 H        -3.6657385352        3.7247952314       -5.7678127248
 H        -4.1626634700        3.5187639319        0.3375047274
 H        -3.6293310636        2.0009071851       -0.1848959787
 H        -5.6628169583        1.8855505065        1.6215347864
 H        -6.4259539925        1.6343170525       -0.0815348051
 H        -8.4290800077        0.7843437017        2.4309810238
 H        -9.2643202659        0.0450397346        0.9599633280
 H       -11.4043729013        1.2870381392        2.1420374163
 H       -10.3284596927        2.1379585355        2.8680572128
 H       -12.6212459833        2.6073915684        6.5127430129
 H       -13.9628094382        1.3645968695        6.4323818281
 H       -14.8144320993        3.7754283326        6.6636305657
 H       -15.0551044304        3.4342619708        5.0229750932
 H       -13.0803835077        4.3909176065        2.8751301065
 H       -13.1669900939        6.1861154162        2.1196618133
 H       -15.2419098084        5.2007981799        0.9825383822
 H       -14.7700632590        3.6377604666        1.2478733299
 H       -12.0003468536        8.6088350125       -1.2627139958
 H       -13.6092134480        8.1385452699       -1.7355755743
 H       -12.2821075289        7.4377714679       -2.6212422845
 H       -11.8410092208        4.3451007012       -2.3769157989
 H       -13.1152753026        5.2759306065       -3.3823075864
 H       -13.5030961437        3.8531235976       -2.4842484899
 H       -15.2764162840        6.6149658954       -1.0523917399
 H       -15.5898138521        4.9459013203       -1.2324015371
 H       -15.1426321126        5.8976859252       -2.7392670784
 H       -16.0952814036        5.4212638259        6.0859244119
 H       -15.9307859059        7.1087525843        5.5587669040
 H       -14.9793726129        6.6218701918        6.7838840588
 H       -12.8764888019        7.6876507763        5.6550235714
 H       -13.7788976067        7.9715618796        4.2020808129
 H       -12.3047349102        6.8153947483        4.2254542148
 H       -12.8944179413       -1.6147190426        3.9776068743
 H       -13.4499624283       -0.3656692514        2.8844812864
 H       -14.2686845579       -0.7382960303        4.4797383034
 H       -11.9804201113       -1.5245974444        5.9466096194
 H       -12.7289326725       -0.3318104812        6.7773122479
 H       -10.9875598967       -0.1493220538        6.5702517984
 H        -8.5908905698        3.3582107873        3.5966021322
 H        -7.0103489006        4.1557817198        3.0271856491
 H        -7.2472774153        2.3702170856        2.9711987558
 H        -9.0985825458        4.3090636502       -0.2867751598
 H        -8.6082710900        5.4500926303        0.9137137474
 H       -10.0372800117        4.5234328143        1.2832867237
 H        -1.3008543326        3.1870372641       -2.8318210081
 H        -2.0935640219        1.6551218086       -2.3877430583
 H        -1.5911970046        2.9094890151       -1.0190332120
 H        -3.8858309439        5.3169465934       -1.3446925875
 H        -3.7217728202        5.5636333109       -3.0986376896
 H        -2.1794908317        5.0962742483       -2.0626559015
 H        -7.7660604803        0.4636800566       -3.5595467928
 H        -6.3015834016        0.9034296191       -4.5239902335
 H        -7.2889836417       -0.2674409084       -5.2004706354
 H        -7.7245396833        0.3308197809       -7.1509946548
 H        -7.6744084750        1.9926455391       -7.7866301031
 H        -9.1982907969        1.1522438732       -7.4536461627
 Na       -8.1101916061        3.3241955876       -2.4025676302
