117

 C       -10.4398025103        2.4924846840       -5.9976879139
 C        -9.3431815752        2.0416129916       -5.0694506174
 O        -9.5376326228        1.9931749840       -3.8460887768
 C        -7.8786666846        1.6115449158       -5.5758263557
 C        -6.9853900688        2.8920594126       -5.3132760614
 O        -7.2060977610        3.7661726400       -4.5237961538
 C        -5.5323484793        2.7838995532       -5.8680160673
 C        -4.4414276372        3.4720151831       -5.0754603136
 C        -3.7961756095        2.5914745174       -4.0424792176
 O        -3.6679873321        1.3730143241       -4.1371260604
 C        -3.4172272026        3.2073693079       -2.6332263725
 C        -4.5738862832        2.7763971144       -1.6865380583
 O        -5.6767708197        2.6678742299       -2.2361597933
 C        -4.5675052039        2.6801887730       -0.0932616257
 C        -5.8067446997        2.2808893332        0.6311842718
 C        -6.8774427195        3.3795968935        0.5996057820
 O        -6.5851215063        4.4587426081        0.1072372539
 C        -8.2005798694        3.3352852667        1.3751802965
 C        -9.0053795438        2.0895438656        0.9119212601
 O        -9.5288027869        2.1819791399       -0.2275497381
 C        -9.1528254230        0.8081128068        1.7810216401
 C       -10.4465679973        0.9877127950        2.6299155821
 C       -10.7255222414        0.0220490046        3.7764030628
 O        -9.7496590819       -0.5870790794        4.2281359569
 C       -12.0143871767        0.2036258941        4.6683072662
 C       -12.6264898310        1.7245972150        4.6735008848
 O       -12.5523159385        2.3910261392        3.6708256710
 C       -13.4992828476        2.2404318079        5.8372809242
 C       -14.2226369776        3.6244340684        5.6714923680
 C       -13.4813171756        4.8596659162        5.4523758784
 O       -12.2268533981        4.8349441543        5.6231395294
 C       -14.1224861507        6.1298966743        4.8417443275
 C       -14.6879854679        5.7622967572        3.4793385708
 O       -15.8643270806        5.7441496463        3.1652228364
 C       -13.5871431950        5.2754989304        2.5098285767
 C       -14.2764906392        4.8137329890        1.2932995093
 C       -13.5100723352        4.4925390566        0.0688064194
 O       -12.7163934704        3.5258161103       -0.0041731483
 C       -13.5612714863        5.4004182574       -1.1514705242
 C       -12.6881569033        6.6967184453       -0.7910063441
 O       -12.1143655430        6.7644843752        0.2391065783
 C       -12.6482661682        7.9400081190       -1.7224117509
 C       -12.7613357563        4.6077112833       -2.4034378522
 C       -15.0067065621        5.7112512131       -1.6226983408
 C       -15.2954968717        6.5198525257        5.8728431802
 C       -13.2528738915        7.3667583875        4.7726885408
 C       -13.2993850100       -0.4278560885        4.0065773210
 C       -11.8862669423       -0.3831435090        6.0450498121
 C        -8.0768355254        3.4107716405        2.9011142840
 C        -9.0455345943        4.6358688813        0.9869077747
 C        -2.0258140501        2.6680512826       -2.1614259764
 C        -3.3756521100        4.7780951397       -2.4061439375
 C        -7.4102074134        0.4183198137       -4.6559472040
 C        -7.8522786978        1.0966381522       -6.9611838294
 H       -10.5411197009        1.6479124396       -6.7093980318
 H       -10.0054715327        3.3397280923       -6.4451290341
 H       -11.3358646392        2.7956421576       -5.5029942058
 H        -5.5239421512        3.1355192499       -6.8945521639
 H        -5.3818282803        1.7425298788       -5.9929229870
 H        -4.9072235284        4.2721229117       -4.5444105181
 H        -3.6963691937        3.9106629808       -5.7406329169
 H        -4.4235017289        3.6792790144        0.3253534379
 H        -3.5796110146        2.2281882954        0.0135105055
 H        -5.5316111323        2.1517615321        1.6302271214
 H        -6.3200812224        1.4238193237        0.1519357344
 H        -8.2531723155        0.5125176532        2.3896303020
 H        -9.4402163885        0.0630638021        0.9497743498
 H       -11.2050090291        1.1483149574        1.8864003376
 H       -10.5803472980        2.0663622138        2.9464906504
 H       -13.0616899767        2.1130622726        6.8246202339
 H       -14.3399146710        1.4320673513        5.6518102859
 H       -14.7647212840        3.8373532758        6.6008094868
 H       -15.1354598665        3.4563699514        4.9938161456
 H       -13.1261936903        4.4196031166        2.9831016651
 H       -12.8974691624        5.9962109328        1.9580862527
 H       -14.9412992363        5.5946327479        1.0478690821
 H       -15.0547013533        4.0088605595        1.4869022368
 H       -12.1303300650        8.8244296559       -1.2781106586
 H       -13.6771172485        8.1533124321       -2.0053838182
 H       -12.2067080891        7.5345645265       -2.5950811579
 H       -11.6664814147        4.3491261936       -2.3293476351
 H       -12.9818946813        5.1421726574       -3.3231199564
 H       -13.2051328379        3.6362599437       -2.4659216630
 H       -15.5766949595        6.4995864581       -1.2236304495
 H       -15.4231522660        4.8418264463       -1.3301318667
 H       -14.9192442742        5.7032059032       -2.7153438694
 H       -16.2287299015        5.9947541859        5.7833818491
 H       -15.4495331157        7.6450426112        5.7538747168
 H       -14.9331841040        6.3924440357        6.9190248509
 H       -12.8005212478        7.5429514629        5.7822288559
 H       -13.8675400247        8.3360742746        4.5812754451
 H       -12.3154498876        7.1922904283        4.1268252311
 H       -13.0680845367       -1.5724914749        3.8555534541
 H       -13.4008777581        0.0482074501        2.9884836547
 H       -14.2382331719       -0.4225692582        4.6026192500
 H       -11.5773597302       -1.4569891258        6.2380858737
 H       -12.9829442850       -0.4170515888        6.4729478544
 H       -11.3411895116        0.2772223028        6.6388133818
 H        -9.0534987076        3.4807812685        3.3037107240
 H        -7.5427599633        4.3533448784        3.1469421403
 H        -7.5857519138        2.5817294406        3.2855991396
 H        -9.4257908299        4.5342689770        0.0196732032
 H        -8.4492676554        5.5936967252        1.0896592377
 H        -9.8114615003        4.7148762382        1.8063922514
 H        -1.2399813869        3.1603612175       -2.8020044977
 H        -1.9832551440        1.6568247040       -2.3906835050
 H        -1.8975955992        2.8092250620       -1.1473799200
 H        -3.6184655375        4.9678322746       -1.3560792262
 H        -4.0572348358        5.3318128989       -2.9399808530
 H        -2.3512679738        5.1576201183       -2.5792035492
 H        -8.0621486047        0.3171538682       -3.8376549648
 H        -6.3729279187        0.3831784157       -4.3877590301
 H        -7.5508958987       -0.3933380301       -5.3359556014
 H        -7.2220598693        0.2508933351       -7.0872639686
 H        -7.7588468933        1.8118920441       -7.7894112236
 H        -8.9059211030        0.6282309032       -7.0649064728
 Na       -8.2420599379        3.3263567060       -2.2536706123
