117

 C        -9.9999621394        0.6023946311       -6.4026818555
 C        -9.0566502934        0.9948354420       -5.2357640384
 O        -9.4894035933        1.6052384500       -4.2357786960
 C        -7.5306319238        0.8392684647       -5.4036799261
 C        -6.9970333489        2.3139467688       -5.0425197595
 O        -7.7019725544        3.1974233624       -4.6188240706
 C        -5.5429652291        2.4753202744       -5.5654345457
 C        -4.5644178368        3.2415023656       -4.7519934121
 C        -3.9283373956        2.1755538567       -3.7824368080
 O        -3.6603891979        1.0768275803       -4.1481543066
 C        -3.5828482792        2.7044498574       -2.3253598052
 C        -4.9023435369        2.7818028516       -1.4562742507
 O        -5.7054910648        1.8594625649       -1.4592557965
 C        -5.2922857877        4.0154045611       -0.5660563116
 C        -6.2331682904        3.5319693276        0.5646740605
 C        -7.7184912072        3.6925826083        0.2941060367
 O        -8.0174470734        4.2457744476       -0.7576279395
 C        -8.7782274313        3.0744173250        1.3181101736
 C        -9.2717915579        1.7013289906        0.5517798746
 O        -9.2122425943        1.4300938160       -0.6359047786
 C        -9.7437545319        0.5125619198        1.4240931635
 C       -10.9800015040        0.6574011728        2.2949883437
 C       -10.8277452687        0.8194823393        3.8137789919
 O        -9.7605435934        1.0536522198        4.2951131702
 C       -12.2498264545        0.7144589237        4.6702970159
 C       -12.9459444426        2.0934915977        4.7384530056
 O       -12.8838259668        2.8119489830        3.7683883567
 C       -13.6463161611        2.6625368366        6.0091612493
 C       -14.1995029559        4.1668175202        5.6698654812
 C       -13.1555850005        5.2555342171        5.6100354315
 O       -12.1166182672        5.0346873115        6.0623926941
 C       -13.4592896258        6.6113275856        4.9453397254
 C       -14.2569886138        6.4740767173        3.6727152001
 O       -15.4805091241        6.4946218337        3.6146672290
 C       -13.3365217650        6.1413921030        2.3189555371
 C       -14.2040263349        5.9490147056        1.1351367303
 C       -13.3356088729        4.9976095171        0.2597154347
 O       -12.8463369440        4.0140638347        0.6988984330
 C       -13.0993705840        5.4851868310       -1.3406800346
 C       -12.8179875666        7.0196037830       -1.3169418726
 O       -12.1689992356        7.4885261391       -0.3463872800
 C       -13.3098309025        7.9124749096       -2.3264339442
 C       -11.9045260307        4.6695363712       -1.7070510616
 C       -14.3941321707        5.0585353568       -2.1645858179
 C       -14.3926213166        7.2928140575        6.1156808144
 C       -12.1852680669        7.4108069280        4.9648437376
 C       -13.1001553712       -0.3309903197        3.9052880851
 C       -11.7868084247        0.2050540589        6.0552669349
 C        -8.2907774523        3.2070783410        2.7314472626
 C        -9.9591486873        4.0249313050        1.1635259919
 C        -2.6367665112        1.6249056995       -1.7587925345
 C        -2.6895855129        4.1107420993       -2.5647593979
 C        -7.0700296400       -0.1376207966       -4.2142448699
 C        -7.0568448192        0.3657518352       -6.7822996884
 H       -10.8859953281        0.0806827856       -5.9740299930
 H        -9.5265391081       -0.0070461586       -7.1676766929
 H       -10.3720327321        1.5953960605       -6.7417277463
 H        -5.7001575009        2.9920733743       -6.5587721710
 H        -5.1076298095        1.5020826569       -5.6430161398
 H        -4.9435830403        4.1991335905       -4.4056239200
 H        -3.7327498548        3.4601513548       -5.5227883096
 H        -5.9955718299        4.6796072124       -1.0930851782
 H        -4.4973699296        4.6689101290       -0.2246822755
 H        -5.9385293707        4.1071050591        1.4255401091
 H        -6.1427348055        2.4673461907        0.9527031965
 H        -8.9815970925        0.4871582551        2.2928706987
 H        -9.7595165553       -0.4530454653        0.9326514326
 H       -11.5258062540       -0.2216068279        2.1489907056
 H       -11.6680350106        1.4836862435        1.7838875500
 H       -12.8753770533        2.6698564389        6.8196132763
 H       -14.5474216254        2.1348978912        6.3099008038
 H       -14.9180901194        4.3569201789        6.4150676632
 H       -14.8482520205        4.1240942356        4.7921821723
 H       -12.5934417890        5.2851712812        2.4272477182
 H       -12.8028069493        7.0982873184        2.1246146326
 H       -14.4110797206        7.0118741400        0.7695088775
 H       -15.0641690813        5.4804894460        1.5422392344
 H       -12.4565843760        8.5936763391       -2.3815890208
 H       -14.1528480896        8.5206178736       -1.9722213127
 H       -13.5258288203        7.4128282528       -3.2280031528
 H       -11.1104893784        5.1937459279       -1.2850549023
 H       -11.7553230000        4.6486403201       -2.7860473707
 H       -11.9605946980        3.5904135209       -1.4547997133
 H       -15.3059545483        5.4962835476       -1.6676854167
 H       -14.2749841598        3.9527789647       -2.2754681656
 H       -14.3299315601        5.4337420348       -3.1939228130
 H       -15.1563654054        6.7622179093        6.6364151116
 H       -14.8661536073        8.1875579168        5.7382182759
 H       -13.6305797628        7.5998612497        6.7679256534
 H       -11.8553462110        7.2659733668        5.9691095397
 H       -12.4366984375        8.4058909683        4.7192976148
 H       -11.4829522191        7.1512840486        4.2795109342
 H       -12.3617017500       -1.0556970692        3.6501312845
 H       -13.5652241423        0.0228404263        3.0033216171
 H       -13.9319865380       -0.6825450602        4.4382654857
 H       -11.2339291947       -0.6563504111        5.9108295379
 H       -12.5900016856        0.2533138509        6.7103766850
 H       -11.0919124763        0.9992137328        6.5616251268
 H        -9.0198600830        2.9420216081        3.5153123376
 H        -7.9899131369        4.2358080558        2.8852558124
 H        -7.3249725681        2.6061337266        3.0779097044
 H       -10.5323042229        3.8504844743        0.2524835689
 H        -9.5101897022        5.0102373935        1.2498091839
 H       -10.5903452429        3.8485696652        1.9483496284
 H        -1.6728819028        1.7741957025       -2.2469830520
 H        -2.9891145734        0.5161517321       -1.8191759534
 H        -2.4201280737        1.8412597563       -0.6182998147
 H        -1.8616124546        4.0908299100       -1.7917783023
 H        -3.4799166028        4.9619055555       -2.4805881695
 H        -2.2452856300        3.9526069360       -3.6152496657
 H        -7.6938670001        0.0254095929       -3.3271795222
 H        -5.9191381195       -0.0824768284       -4.1306938399
 H        -7.3771428388       -1.0932686890       -4.7101290815
 H        -5.9509750819        0.3981409848       -6.8954313881
 H        -7.2805425862        0.9643812904       -7.6664398626
 H        -7.3440434738       -0.5900960825       -6.9709594230
 Na       -8.0530287900        2.6589702604       -2.3496557158
