117

 C        -9.7207742210       -0.2515511559       -6.1616708113
 C        -8.8858141942        0.1536583011       -4.9017858186
 O        -9.4448253611        0.4852980146       -3.8611721904
 C        -7.3425798729        0.2535628644       -5.2972438010
 C        -6.7105845158        1.7859993664       -4.9661819116
 O        -7.2870678398        2.6858864943       -4.4044569580
 C        -5.3163669159        2.1819488569       -5.7469025435
 C        -4.3791464588        2.8684730513       -4.7810327462
 C        -3.9501457224        2.0023192961       -3.5962229219
 O        -3.6680605640        0.8597159304       -3.6675988211
 C        -3.9723974834        2.5584195534       -2.1194334647
 C        -5.4157350836        3.0779967410       -1.6947292831
 O        -6.2347083759        2.2075889098       -1.4005380166
 C        -5.6583651432        4.5985253274       -1.3545186184
 C        -6.5974922700        4.6102990531       -0.1375423173
 C        -7.9145021376        3.6930320756       -0.3394170421
 O        -8.5051412831        3.7842022973       -1.3780406027
 C        -8.6401071338        2.9908064593        0.9154275701
 C        -9.1228174056        1.4930477478        0.7457590274
 O        -8.6536642718        0.8404104938       -0.2006610694
 C        -9.8036331127        0.6465291058        1.9212865378
 C       -11.1632864212        1.0912410228        2.5089539215
 C       -11.0772085288        0.9197613700        4.0437821831
 O       -10.0775117206        0.5002552522        4.5366765254
 C       -12.5054973473        1.0957606139        4.8124547941
 C       -13.1091098709        2.5498954351        4.5663660253
 O       -13.1004175095        3.1799099221        3.5709224976
 C       -13.6560404193        3.1647708392        5.8989130629
 C       -14.0984870355        4.6669448203        5.6750895423
 C       -12.8315866256        5.5777305124        5.6646255839
 O       -11.8064118005        5.2736248993        6.2656644739
 C       -13.0464656481        7.0220578417        4.9779322627
 C       -13.7107143105        6.7433862037        3.6564195760
 O       -14.8522340194        6.9988663147        3.5387390597
 C       -12.9268340860        6.2626309023        2.4977478296
 C       -13.8720660706        6.1535412215        1.2021120385
 C       -13.2880096108        5.2650886383        0.0397975863
 O       -12.6305204176        4.3088628310        0.3530786077
 C       -13.3208751253        5.6532890597       -1.4681684414
 C       -12.9811548216        7.2834144607       -1.4736970553
 O       -12.1496344661        7.7546810836       -0.7750604042
 C       -13.7012057816        8.1512429495       -2.6186117757
 C       -12.1832314563        4.9355089848       -2.0001544592
 C       -14.5834764022        5.1534479521       -2.1689831195
 C       -13.9399796977        7.6265671788        6.0969889340
 C       -11.7440888839        7.8358767874        4.9235115836
 C       -13.4632097404        0.0617409755        4.1397903697
 C       -12.2894713848        0.7052078740        6.2884354696
 C        -7.8282957937        3.1148607545        2.1822684090
 C        -9.8386941594        4.0407419756        1.1418138440
 C        -3.7795410560        1.3592243534       -1.0750854328
 C        -2.7630199621        3.6523322183       -1.8472206710
 C        -6.3133797674       -0.7879381180       -4.6640755891
 C        -7.1781284546        0.2780268296       -6.7878745670
 H        -9.5330985692        0.4267941244       -7.0196577008
 H       -10.7338161125       -0.2490753745       -5.9306181057
 H        -9.3560632002       -1.1563707262       -6.5638326668
 H        -5.5930788570        2.8552060748       -6.4980877114
 H        -4.7462149548        1.3177006683       -6.1607653035
 H        -4.8464345379        3.8142573576       -4.4215188085
 H        -3.5348051493        3.1713596305       -5.3397774719
 H        -6.2097672396        5.0608216291       -2.1872160268
 H        -4.7685535393        5.1497539662       -1.0044125642
 H        -6.8471252208        5.6564913400        0.1528803641
 H        -6.0302068148        4.2788101133        0.7285118999
 H        -9.0262765716        0.2523168803        2.5112031792
 H       -10.0628669331       -0.3631359433        1.3923193592
 H       -11.9262401952        0.3320887530        2.1993775710
 H       -11.2744634564        2.1689396848        2.4044291595
 H       -12.9684475844        3.1066181932        6.7093842422
 H       -14.6274895753        2.6441325210        6.2301464260
 H       -14.9120160674        4.9670588192        6.3824176472
 H       -14.3896439557        4.7480604716        4.6020310431
 H       -12.6014607172        5.2331879786        2.7549722889
 H       -11.9515813287        6.8541754282        2.5424328416
 H       -13.7370502877        7.1076685329        0.8564168121
 H       -14.9257042262        5.8098858880        1.5682057848
 H       -13.2716616115        9.1867032790       -2.5820066982
 H       -14.7388220136        8.0979558234       -2.3958206336
 H       -13.5115353261        7.8267471038       -3.5823780176
 H       -11.2128865600        5.3834490278       -1.5726624203
 H       -12.1602379046        5.1542319528       -3.0809821489
 H       -12.1578904370        3.9106192339       -1.7321711683
 H       -15.4869610636        5.5325224460       -1.6270091597
 H       -14.6874023580        4.0792498968       -2.1938318446
 H       -14.4849223172        5.6905873837       -3.2017947188
 H       -14.8046886262        7.1142349053        6.1120468257
 H       -13.9947774346        8.7656568396        6.0545537982
 H       -13.5336198871        7.4464032399        7.0761963282
 H       -11.1176091166        7.5702226430        5.7468251647
 H       -11.9880849284        8.9486878423        5.0156014289
 H       -11.1654819437        7.4891954166        4.1022014765
 H       -13.2075002869       -1.0168729978        4.4904589176
 H       -13.4207517730        0.3123182706        3.1115918906
 H       -14.4892583856        0.0289255841        4.5261838346
 H       -11.7033541452       -0.1944332299        6.2621279484
 H       -13.2592149304        0.3950247230        6.8119900853
 H       -11.6069776620        1.5342458650        6.6688973107
 H        -8.3178624381        2.7035708873        3.0145487673
 H        -7.6135739639        4.1269473979        2.5352850779
 H        -6.8952809561        2.5743858066        2.2521011364
 H       -10.4847765348        4.0948809186        0.3225496263
 H        -9.3983484993        5.0314034629        1.3169931968
 H       -10.3477383971        3.6327499886        1.9908326094
 H        -2.7548408099        0.9583071534       -1.0107772196
 H        -4.5904869138        0.6333980543       -1.2358480795
 H        -3.9280126166        1.7010787177       -0.0185046953
 H        -2.5193577051        3.4811138279       -0.8707938043
 H        -2.9484707589        4.7688710042       -1.9126169904
 H        -1.8727896391        3.4158116184       -2.3450539619
 H        -6.2841824740       -0.6938035241       -3.5915278731
 H        -5.3685189639       -0.5185953906       -5.1972999093
 H        -6.7005531925       -1.7921912326       -5.0292024665
 H        -6.2120763249        0.5039355923       -7.2327567197
 H        -7.9539285315        0.7298708072       -7.4323657739
 H        -7.2139448111       -0.8250869555       -7.0577562292
 Na       -8.3560778038        1.7894309208       -2.1673068835
