117

 C        -9.7316547805       -0.3661181123       -6.0306304280
 C        -8.6636988978        0.1386525093       -4.9506200597
 O        -9.1771796647        0.3798190590       -3.8639858389
 C        -7.1379304140        0.1959935631       -5.4356257628
 C        -6.6648750427        1.6463416516       -5.0064736245
 O        -7.2431643871        2.2975565981       -4.1827289983
 C        -5.3724747844        2.0926764796       -5.6948649705
 C        -4.4672370875        2.8430643544       -4.7286445224
 C        -3.9374845858        1.8700681246       -3.5222521169
 O        -3.5340750635        0.7579444810       -3.7751778921
 C        -4.0816703665        2.5470121686       -1.9793652345
 C        -5.4595346762        3.1209193722       -1.6079841507
 O        -6.2714258278        2.2243969083       -1.4565023649
 C        -5.9257413515        4.5256687000       -1.4304123047
 C        -6.8274378641        4.6997008913       -0.1236545559
 C        -7.9269386894        3.7895187411       -0.2792388488
 O        -8.7055528704        3.8104282652       -1.2366759582
 C        -8.5712851967        2.9827192323        1.0260406292
 C        -9.0247990806        1.5212453540        0.7654933701
 O        -8.6646973003        0.9201976915       -0.2122680540
 C        -9.8391807519        0.9197208951        1.8724417718
 C       -11.1299488920        1.3436281296        2.4867229543
 C       -11.1373212549        0.9514797337        4.0779733831
 O       -10.2281911088        0.5179454125        4.7316847838
 C       -12.5660765904        1.0805150079        4.8196128504
 C       -12.9801031481        2.5979372158        4.7734232822
 O       -12.9685093844        3.2056927389        3.6910382495
 C       -13.5849703302        3.2180207867        5.9882046026
 C       -13.9859596439        4.6919531605        5.5778720029
 C       -12.7349284559        5.5293870494        5.6349885704
 O       -11.7638011281        5.2090405513        6.1859168049
 C       -12.9558494591        7.0023845981        5.0340698759
 C       -13.7429801875        6.9763279574        3.5750544136
 O       -14.9314368365        7.2720725657        3.3994573430
 C       -12.8434049997        6.2985106404        2.4473503280
 C       -13.7773552009        6.2946627718        1.1582445122
 C       -13.1706103913        5.3236041024        0.1717463127
 O       -12.5579781839        4.3321779190        0.4091246925
 C       -13.3551946181        5.7826442512       -1.4892843991
 C       -13.1280875453        7.1909639781       -1.5189639998
 O       -12.2136532048        7.6775569601       -0.8032405870
 C       -13.7152654066        8.1186886971       -2.5433415718
 C       -12.1973638162        5.0771043562       -2.3511142855
 C       -14.7503935474        5.3119704387       -2.2037371506
 C       -13.9651277954        7.7564091681        5.9599093641
 C       -11.6054172753        7.7795357932        4.9704869823
 C       -13.4559260534        0.0358970143        4.0871546695
 C       -12.4144499009        0.7395584070        6.3398072775
 C        -7.6989081435        2.9920497292        2.2532800386
 C        -9.8574893194        3.9404607039        1.1461635932
 C        -3.8089253750        1.4661310425       -1.0190767726
 C        -2.8830336950        3.4590056746       -1.7873507713
 C        -6.3400688813       -0.9611899542       -4.8361030077
 C        -7.1514715207        0.1174837728       -6.9216943337
 H        -9.8083742822        0.1637962865       -6.9499984012
 H       -10.6224773330       -0.3847675616       -5.4525553214
 H        -9.4187412212       -1.3498710340       -6.3542427391
 H        -5.7399185964        2.8304825019       -6.4147316318
 H        -4.8160922482        1.3275167605       -6.2232097654
 H        -4.8639388728        3.7907229005       -4.4831924324
 H        -3.5900202361        3.0322113469       -5.3234029223
 H        -6.7217080818        4.7664218658       -2.1619504864
 H        -5.0738639511        5.2266160496       -1.3451752002
 H        -7.1497156619        5.7274653739       -0.1534576236
 H        -6.3649145575        4.6208417659        0.8844239714
 H        -9.0305472214        0.8624189990        2.5698725612
 H        -9.9002638455       -0.1818502594        1.7063535315
 H       -11.8742286889        0.7789896361        2.1228334512
 H       -11.2271918817        2.4271365394        2.6379389336
 H       -12.8311269898        3.3383122942        6.7048077832
 H       -14.4793402444        2.7958103200        6.5251239058
 H       -14.4639188991        5.0288772507        6.5308628753
 H       -14.6844358853        4.8438380677        4.6841410360
 H       -12.6826878438        5.2973827564        2.7324514848
 H       -11.8219776691        6.7853332921        2.5757797231
 H       -13.7525635169        7.3202140802        0.7453027797
 H       -14.6925164872        5.8624183083        1.5756659152
 H       -13.1654202412        9.0327621787       -2.5903027381
 H       -14.8018848825        8.2066375144       -2.3099118829
 H       -13.5417090584        7.6998215882       -3.5036974886
 H       -11.2358574439        5.4187197636       -2.0062752289
 H       -12.2904233560        5.4481597337       -3.4046246026
 H       -12.1374878614        3.9676621446       -2.1549832650
 H       -15.7480148894        5.6272576287       -1.8694126276
 H       -14.7465681284        4.2170248806       -2.1258958041
 H       -14.5659455594        5.6484963060       -3.2052073618
 H       -14.8724335985        7.0841652665        6.2172778655
 H       -14.1687260811        8.5939664326        5.3395161327
 H       -13.6702209650        8.2195143446        6.9381276299
 H       -10.8554469355        7.4712705057        5.8137149542
 H       -11.8138638661        8.8782568416        5.0808055156
 H       -11.1061317192        7.3848025442        4.0692551666
 H       -13.0168294712       -0.9112311566        3.8437790757
 H       -13.8755232442        0.6809045677        3.2053563749
 H       -14.2221398369       -0.3811127529        4.8361506957
 H       -12.0047645502       -0.2511837896        6.4402774967
 H       -13.3983692861        0.5746892629        6.7284794610
 H       -11.6921188573        1.5707328052        6.8036493926
 H        -8.1075030705        2.4451757586        3.0474087350
 H        -7.5350094210        3.8620950208        2.7379847808
 H        -6.7126683907        2.5122833488        2.1754195995
 H       -10.4844574128        3.8782817688        0.1776496178
 H        -9.5283134435        5.0128899107        1.3206729503
 H       -10.3764219680        3.6357212454        2.0050327549
 H        -2.8376841835        1.1990862071       -1.0000728925
 H        -4.4647111500        0.6120942373       -1.1567677496
 H        -4.0299226703        1.8154157193       -0.0282722383
 H        -2.8839851221        3.8089185056       -0.7731917370
 H        -2.8139252798        4.3353387346       -2.4095369714
 H        -1.9404622536        2.9585520298       -1.9904129231
 H        -6.4463235675       -1.1298255807       -3.7839825567
 H        -5.3104200154       -0.7754253330       -5.1781531066
 H        -6.7546939033       -1.7151303753       -5.4595040183
 H        -6.1853905468       -0.1208843330       -7.4840130417
 H        -7.7106473085        1.0307749888       -7.3129093407
 H        -7.7531217181       -0.6897302913       -7.2434749043
 Na       -8.3841490602        1.7351052329       -2.3205812745
