117

 C        -9.9521953144       -0.7360721176       -5.7639318649
 C        -8.6655065005       -0.1832075628       -5.1493874830
 O        -8.6711551375       -0.1426055672       -3.9490183483
 C        -7.1065360513        0.0914175523       -5.7481176485
 C        -6.4706822585        1.3357376051       -5.1426132946
 O        -6.8909487484        1.7958983059       -4.0869760315
 C        -5.1722810259        2.0023067030       -5.6281365332
 C        -4.5482446804        2.8044095987       -4.4690594087
 C        -4.0208373189        1.9169396929       -3.3636742097
 O        -3.5101930642        0.8404639794       -3.5256484809
 C        -4.1280284588        2.5355145629       -1.9200747794
 C        -5.5169104469        2.9048427623       -1.5820458296
 O        -6.3908025492        2.0616206932       -1.4261525055
 C        -5.9643463333        4.3746537410       -1.6269558999
 C        -6.8070676836        4.6732717673       -0.4072616290
 C        -8.1438306212        3.7244978349       -0.2334410725
 O        -8.8455952671        3.7231165346       -1.2220419301
 C        -8.6724079661        3.2081310303        1.1004292478
 C        -9.1242641387        1.7237533838        1.0190559215
 O        -9.0472776140        1.1548177194       -0.0829556298
 C        -9.7069216794        0.7129265123        2.1614908486
 C       -11.0204845989        1.4114112408        2.6323096422
 C       -11.1268999916        0.8710766383        4.2045275029
 O       -10.1472880950        0.6078102709        4.8361386771
 C       -12.6409599174        1.0028116854        4.8824409575
 C       -12.9624205503        2.6035510389        4.8408139072
 O       -12.8099940857        3.2390917818        3.8523534580
 C       -13.5881175391        3.2967553475        6.0093462200
 C       -14.0810640473        4.8000000690        5.7854452640
 C       -12.8272061895        5.7164032296        5.5446038313
 O       -11.6443270406        5.3124794964        5.7583788394
 C       -12.9651739855        7.1484428721        5.0540947531
 C       -13.6251525970        7.1091066795        3.5513140169
 O       -14.5892284830        7.7211417054        3.2889894120
 C       -12.9354691891        6.3691382173        2.2964165942
 C       -13.8063711907        6.3002929014        1.0919425079
 C       -13.1803966325        5.3609326065       -0.0923723684
 O       -12.6197404727        4.3016989958        0.1480518586
 C       -13.3128570152        5.8429140962       -1.5949700858
 C       -13.0272695887        7.3629413405       -1.6034059504
 O       -12.1939394323        7.9245513383       -0.9780642191
 C       -13.8412882254        8.1775137601       -2.5511204812
 C       -12.4152142179        5.1247689040       -2.6013604596
 C       -14.7836491453        5.4795479276       -1.7584292107
 C       -13.8730734007        8.0763246896        5.9133428689
 C       -11.5401006731        7.7843582800        4.9566283403
 C       -13.8044308679        0.3126657431        4.1067065446
 C       -12.4125553307        0.4230728688        6.2882991273
 C        -7.5166841640        3.1797075955        2.0810624352
 C        -9.7297414457        4.1486947162        1.7105359069
 C        -3.7834591892        1.2805677663       -0.9417178844
 C        -3.0840667161        3.6020442403       -1.8802648237
 C        -6.4110445097       -1.1940409269       -5.0539352799
 C        -6.9401995334       -0.0160266797       -7.2600215117
 H       -10.3266430588       -0.0180273877       -6.5890568246
 H       -10.6748828551       -0.8145915258       -4.9299706168
 H        -9.6998473199       -1.6956956118       -6.2816148358
 H        -5.1956432843        2.5409803010       -6.6024823311
 H        -4.5112223525        1.0900462699       -5.7220868331
 H        -5.3627131017        3.4158330468       -3.9648753761
 H        -3.7868726808        3.5406289831       -4.7893299503
 H        -6.6045795646        4.3838112160       -2.4998765396
 H        -5.1023567137        5.0273228973       -1.5574952661
 H        -7.1774581287        5.7318340835       -0.4390681962
 H        -6.0672073669        4.6819737438        0.3756505265
 H        -9.0520252960        0.5018670242        3.0527336087
 H        -9.8480676751       -0.2607702607        1.6351990920
 H       -11.9661819894        1.1009877971        2.0410652850
 H       -10.7771658081        2.4087819739        2.8907331409
 H       -12.9587191282        3.1300327032        6.9547309128
 H       -14.5362355551        2.8562364206        6.2676889359
 H       -14.6061367909        5.0825945811        6.6847878556
 H       -14.7374130428        4.7479189979        4.9508284953
 H       -12.6858200935        5.3911395677        2.7861294201
 H       -11.9829778881        6.7663243359        2.0522504156
 H       -13.9617617672        7.3347772118        0.8163788460
 H       -14.7388497697        5.7858388947        1.4582904740
 H       -13.2850158200        9.1492797079       -2.7197191462
 H       -14.8112634714        8.2889949072       -2.1087046632
 H       -13.8276946468        7.7496642893       -3.5670894232
 H       -11.3408942674        5.1811443347       -2.3005886842
 H       -12.5566261969        5.5994458214       -3.5324075027
 H       -12.5750954677        4.1051429102       -2.5461086068
 H       -15.2386125142        6.1806564006       -1.1060243817
 H       -15.0438061642        4.5348833144       -1.3966596920
 H       -15.2525472967        5.7372177335       -2.7209780478
 H       -14.6889731594        7.6407220140        6.3665329789
 H       -14.1277191861        9.0086304772        5.2768953722
 H       -13.2653990440        8.4717302174        6.7160396002
 H       -11.0860157316        7.9855444880        5.8613913352
 H       -11.7335117763        8.7802415945        4.5391441134
 H       -10.9492936349        7.1108808775        4.3517848433
 H       -13.3597135758       -0.2290906328        3.1923543216
 H       -14.5102580688        0.9358265510        3.7535588832
 H       -14.1416747857       -0.4590447710        4.7207858573
 H       -12.4376025853       -0.6082841504        6.2512574536
 H       -13.3201843906        0.5552238303        6.8196006979
 H       -11.5192917956        0.8513739930        6.7223821641
 H        -7.9123869858        2.9734669548        3.0948308815
 H        -7.1556595703        4.2564449344        2.2910127047
 H        -6.6095179337        2.6175205636        1.9932137424
 H       -10.7323739456        3.7807148539        1.6182426705
 H        -9.7289689253        5.1543086417        1.2233175050
 H        -9.3473831200        4.3854686223        2.7418348646
 H        -2.9167468385        0.7223068752       -1.4202801856
 H        -4.5726230909        0.5358849820       -0.9604364268
 H        -3.5764315848        1.5362209981        0.1249541329
 H        -3.3549060967        4.5443973070       -1.3279779862
 H        -2.5692287331        3.9008336674       -2.8953169146
 H        -2.1308589578        3.2077808662       -1.4865969504
 H        -6.7235309707       -1.0208575748       -4.0619091117
 H        -5.3624245505       -1.0376917960       -5.0723313652
 H        -6.7743957784       -2.1250985035       -5.5481593341
 H        -6.1959925915       -0.7183233347       -7.4237684187
 H        -6.6577838101        0.8877102178       -7.6724468485
 H        -7.8176582822       -0.3729604295       -7.8550908834
 Na       -8.6113397053        1.7354467848       -2.2802415923
