117

 C        -9.7809011910       -0.7541672853       -5.9439133065
 C        -8.5797981836       -0.3330848435       -5.0725236912
 O        -8.7061924849       -0.3139063623       -3.8591588515
 C        -7.0693543393       -0.1065209983       -5.7260341053
 C        -6.4462758986        1.1745908158       -5.1076419425
 O        -6.9049625972        1.6554979563       -4.1092540726
 C        -5.0469745659        1.7904583812       -5.6584415791
 C        -4.6116828871        2.7419805735       -4.5944810169
 C        -4.0361172688        1.8648419906       -3.2828698113
 O        -3.5477392522        0.7943849188       -3.5627118955
 C        -4.0443805120        2.5125886608       -1.9008964928
 C        -5.6121238689        2.7748524505       -1.6749938068
 O        -6.3520600053        1.8784647324       -1.2862077074
 C        -6.1391038059        4.2729270268       -1.6389186721
 C        -6.9512938706        4.6301855163       -0.4390070612
 C        -8.2553102350        3.8099551810       -0.3038922236
 O        -8.9326238747        3.7005748248       -1.2865284371
 C        -8.5626994438        3.2896024319        1.2286728514
 C        -9.2422030828        1.7850706449        0.9353763091
 O        -9.2853075617        1.2119639503       -0.1383921849
 C        -9.6358725017        0.9693373492        2.2252385898
 C       -10.9831326506        1.2433564082        2.8137126091
 C       -11.1557769381        0.8723440385        4.2586710681
 O       -10.2418368748        0.5706473769        4.9631366579
 C       -12.5684893385        1.0655204214        4.9121820292
 C       -12.8808083689        2.6400748577        4.8654946228
 O       -12.7896497006        3.2490032508        3.8340996074
 C       -13.6729862832        3.3232160494        6.1259120195
 C       -13.9923759290        4.8283535061        5.8540811335
 C       -12.7356265834        5.6727112521        5.4434569127
 O       -11.6738114062        5.1917624058        5.6299172523
 C       -12.9615328154        7.2781145535        4.9142444096
 C       -13.6526654357        7.2015849934        3.4212483495
 O       -14.5836982652        7.9235496964        3.1528740350
 C       -12.8683867030        6.3096568079        2.3816030818
 C       -13.7114950464        6.1016158573        1.1331671843
 C       -13.0302300617        5.4131241265       -0.0186893845
 O       -12.6464956245        4.2919678984        0.0410868459
 C       -13.4049700502        6.0344138124       -1.4305995449
 C       -13.0127983633        7.5804259666       -1.6981754819
 O       -12.0526960927        8.0176363920       -1.0638529450
 C       -13.9760103000        8.2990784101       -2.6967128795
 C       -12.5862567805        5.0743045368       -2.4912040897
 C       -14.9106947998        5.6028184449       -1.6873672951
 C       -13.7695766036        8.0979631377        5.8950048780
 C       -11.5290262576        7.9057257938        4.8138365951
 C       -13.7770062672        0.4904029557        4.1169952962
 C       -12.5095331655        0.3755707608        6.2733135250
 C        -7.3317861632        3.2540423908        2.1892766059
 C        -9.6362175363        4.3711616398        1.8698064488
 C        -3.6486873739        1.3957607274       -0.8859388839
 C        -3.0610581023        3.6472392865       -1.6825225740
 C        -6.2526054089       -1.2719388348       -5.2223966862
 C        -7.0052259011       -0.0663753291       -7.3495922397
 H       -10.2228339951       -0.0504984862       -6.7324128725
 H       -10.5439759621       -0.9428088135       -5.1980405716
 H        -9.5141920905       -1.7023378384       -6.4571569438
 H        -5.2437578364        2.3621980649       -6.5387429418
 H        -4.2143009960        1.0628742180       -5.8802280696
 H        -5.4667444651        3.4844164236       -4.4331990359
 H        -3.8004546566        3.3529641618       -4.9977058657
 H        -6.8135099180        4.2214582477       -2.4615125043
 H        -5.2891325815        4.9532157145       -1.6567069480
 H        -7.1883221751        5.7119026807       -0.3654246138
 H        -6.2328591166        4.4007955340        0.3718119290
 H        -8.8152302898        1.1122998931        2.9451028728
 H        -9.5345827339       -0.1371079306        1.8329498842
 H       -11.7140866310        0.5897600126        2.3186190971
 H       -11.2064143947        2.3689979733        2.9154951343
 H       -13.0751462772        3.2766440893        7.0138348193
 H       -14.6822386090        2.8455337206        6.4604443036
 H       -14.3632864050        5.2861740984        6.7658985384
 H       -14.7328841307        4.8086688826        5.0729488009
 H       -12.6804767658        5.5165145478        3.1042074762
 H       -11.8019380524        6.6315452237        2.0128855816
 H       -13.9332907130        7.1118035343        0.8302557511
 H       -14.6835468245        5.5563918700        1.4456052321
 H       -13.5106486492        9.2857868775       -2.9303709526
 H       -14.9084773494        8.4062210869       -2.1127476126
 H       -14.0374941678        7.8352898535       -3.6246045805
 H       -11.5313348935        4.9702021893       -2.2864497132
 H       -12.7725897469        5.4313855602       -3.4718658873
 H       -12.9298111367        4.0964173979       -2.3197338260
 H       -15.6586577825        6.1652514006       -1.0908947442
 H       -15.0439959525        4.5390226915       -1.5382534460
 H       -15.1976839762        5.9012432921       -2.7362656103
 H       -14.7190342879        7.6217864832        6.0867491510
 H       -13.9616655449        9.1229875394        5.6320901270
 H       -13.2281348968        8.0794656640        6.8065704452
 H       -11.2784062603        8.3196851309        5.7568226805
 H       -11.5378666966        8.8046812107        4.2164774473
 H       -10.8711034523        7.1815478343        4.4886551892
 H       -13.4557549399        0.2188156334        3.1307772701
 H       -14.5864065546        1.2167991916        3.8909818997
 H       -14.1953486307       -0.3570058709        4.6396563793
 H       -12.5281919258       -0.6490777441        6.0766795949
 H       -13.4438252345        0.4829949522        6.8064392103
 H       -11.5202923952        0.7236430540        6.8128607593
 H        -7.4957958770        2.8505270948        3.1917270243
 H        -6.9613118298        4.2579889120        2.4153074764
 H        -6.3506867849        2.7511950763        1.8082206722
 H       -10.6465928498        4.2196542737        1.5064925299
 H        -9.3280218524        5.3484213623        1.5072964644
 H        -9.4762812148        4.4890224671        2.8497537081
 H        -2.9040434476        0.8172596125       -1.3826031424
 H        -4.4829744712        0.5859551856       -0.7746756369
 H        -3.3342424463        1.7536749110        0.1706602250
 H        -3.4876985674        4.3389465996       -0.9776163594
 H        -2.7477414349        4.1813078841       -2.6034942146
 H        -2.0619387329        3.3605421099       -1.4127656848
 H        -6.2430849528       -1.0197326453       -4.1697673179
 H        -5.1908776953       -1.0975760340       -5.5529639397
 H        -6.7069725570       -2.2399386975       -5.5416276091
 H        -6.2876168995       -0.7808779630       -7.7635364967
 H        -6.7266669845        0.9732498434       -7.6009177828
 H        -7.9147327705       -0.2567365329       -7.8209163540
 Na       -8.6988317682        1.6778927360       -2.2291900400
