117

 C        -9.4780419047       -1.2960709371       -5.9639340273
 C        -8.3498681105       -0.6959266122       -5.1000979367
 O        -8.5030866370       -0.7709893709       -3.8657361900
 C        -6.9630763181       -0.3356892593       -5.7655427987
 C        -6.4340883478        0.9388630348       -5.0839106475
 O        -7.0076007053        1.5076615473       -4.1438178044
 C        -4.9188798314        1.4976487760       -5.4413469248
 C        -4.3215950694        2.4084730005       -4.4556168478
 C        -3.9814335339        1.5146307686       -3.1422727029
 O        -3.4932236076        0.4575619496       -3.1861514019
 C        -4.1613267017        2.3388310475       -1.7685307274
 C        -5.6749533981        2.4602255721       -1.7354531787
 O        -6.3582295978        1.5387284055       -1.2770646072
 C        -6.6304288257        3.6288540525       -2.1800039590
 C        -7.0494467705        4.4225731277       -1.0136212214
 C        -8.4161718911        3.7200806059       -0.4032244373
 O        -9.2456379780        3.5488593866       -1.2322343966
 C        -8.5621468998        3.5248880933        1.1436715024
 C        -9.4694072815        2.1276620675        1.2744338080
 O        -9.7478009663        1.4923320777        0.3128531064
 C        -9.7085101973        1.7271311655        2.8193447486
 C       -10.9773653922        1.0372054534        2.9945607132
 C       -11.4416772967        0.8825029538        4.5002213855
 O       -10.6326331595        0.5135376986        5.3447879555
 C       -12.8713824940        1.2830296447        4.9776755888
 C       -12.9083977358        2.8506028090        4.8187722831
 O       -12.7625820333        3.3281856204        3.7102429850
 C       -13.2347032370        3.6390570225        6.0393811168
 C       -13.5443213391        5.0831634198        5.8660832939
 C       -12.3495504612        5.8161474071        5.1841150745
 O       -11.2656108644        5.3481893308        5.2390211285
 C       -12.6291662350        7.3777418717        4.6510356617
 C       -13.3724656336        7.3260032752        3.3081534390
 O       -14.2841131871        8.1752687262        3.0616177238
 C       -13.0462262296        6.1562993387        2.3676102786
 C       -13.9734101369        6.1121995320        1.1708891315
 C       -13.1595276110        5.6723714463       -0.2678045284
 O       -12.0765444914        5.1637855547       -0.1498745122
 C       -13.7814325175        6.0904724541       -1.5507806774
 C       -13.1137140859        7.5501752739       -1.7385720086
 O       -11.9478130990        7.7966897570       -1.4056914829
 C       -13.8318558409        8.6739717102       -2.5338410402
 C       -13.3389096760        5.2328519104       -2.7135063398
 C       -15.3318170795        6.0459079296       -1.5016457218
 C       -13.6727938939        8.0834102202        5.6601258807
 C       -11.2945495282        8.2021395987        4.9015013303
 C       -13.9710542129        0.6433182952        4.1011998427
 C       -13.0141735296        0.7614089006        6.4239183905
 C        -7.1125764182        3.3503309586        1.8113623194
 C        -9.1708176000        4.6436417501        1.8836498917
 C        -3.6197147154        1.5583304682       -0.4890075179
 C        -3.4424413327        3.7817959399       -1.9555762176
 C        -6.1715288460       -1.6303568277       -5.3076507933
 C        -6.9798406176       -0.1310972579       -7.3888047379
 H       -10.0041301073       -0.5422081334       -6.6037128626
 H       -10.3345521546       -1.7518398938       -5.3754681134
 H        -9.0528439976       -2.1296522458       -6.6080839331
 H        -4.8804966534        1.9471184905       -6.4525368667
 H        -4.1777787022        0.6297075845       -5.5943099346
 H        -5.0486770019        3.2797110145       -4.3834221917
 H        -3.4170041029        2.8686061534       -4.8913111721
 H        -7.4951826403        3.0693079655       -2.5035441741
 H        -6.2002099125        4.2671884019       -2.9582365990
 H        -7.2808484137        5.3869143207       -1.4234865659
 H        -6.2062719009        4.4099700233       -0.3380954188
 H        -9.6484744593        2.6673706233        3.3454696856
 H        -8.7696707381        1.0805615727        2.8668767745
 H       -10.8400590892        0.0555611728        2.5374466057
 H       -11.8647038740        1.6547399634        2.5043664270
 H       -12.3641764388        3.6586516436        6.6065534910
 H       -13.9000868178        3.0043331050        6.7767284535
 H       -13.6245238273        5.5632652496        6.8273031630
 H       -14.4664852442        5.1572425549        5.3143955879
 H       -13.0512097018        5.3048246439        2.9742847116
 H       -11.9724855844        6.1243810933        1.9493948632
 H       -14.3128519980        7.0667543449        0.8230763644
 H       -14.9548137809        5.6447801960        1.4494259985
 H       -13.1565142927        9.5005248008       -2.6812504905
 H       -14.5902619116        9.1119874870       -1.7826234233
 H       -14.2538733426        8.2669592416       -3.4571468365
 H       -12.3047346742        5.1828131801       -2.6059217766
 H       -13.6914941749        5.5940423980       -3.6955872573
 H       -13.8192698968        4.2314147287       -2.5830693174
 H       -15.8546513148        6.8583509000       -1.0999015223
 H       -15.6834419145        5.0932378191       -1.1822338640
 H       -15.6383280329        6.0450023443       -2.5077860584
 H       -14.7150104929        7.6727278940        5.6013904792
 H       -13.8959400259        9.0287635943        5.4684862007
 H       -13.2595764145        7.9423785034        6.6464742406
 H       -10.9717410172        7.9984095990        5.9581486417
 H       -11.5034238609        9.2415933609        4.7528705210
 H       -10.5580060200        7.9866090770        4.1666153077
 H       -14.6419064339        1.3414108103        3.9112054590
 H       -14.3858562287       -0.3494855650        4.3740123796
 H       -13.5424441419        0.3327227316        3.2073158689
 H       -12.6910229797       -0.3573611070        6.4684583968
 H       -13.9993030268        1.0191837568        6.7282291438
 H       -12.3477488663        1.2672530907        7.0786233710
 H        -7.2364352294        3.0065476739        2.8521539500
 H        -6.4843352562        4.2171568705        1.8463267414
 H        -6.3252751442        2.6253388902        1.3996189390
 H        -8.6889631880        5.5722004611        1.4578006472
 H        -9.1158018458        4.5965899442        2.9762546954
 H       -10.2597356180        4.7135061582        1.7668755754
 H        -2.5377073553        1.4931555089       -0.6292108328
 H        -3.8252957121        0.4574858690       -0.5874789133
 H        -3.9151905609        1.9842788932        0.4975213167
 H        -2.6914190165        4.0428654938       -1.1131952869
 H        -4.0475192323        4.6518019486       -1.8535683622
 H        -2.7876920653        4.0905203243       -2.8489557973
 H        -6.4477953401       -1.9460675706       -4.3018057956
 H        -5.1251785174       -1.5099380803       -5.4731472795
 H        -6.5806891243       -2.2210668888       -6.0484592744
 H        -6.6809341842        0.8612005348       -7.7123369229
 H        -7.9493443954       -0.3951765555       -7.7377484100
 H        -6.3616889962       -0.8573657633       -7.7307206798
 Na       -8.4732843968        1.1174101167       -1.8016879312
