117

 C        -9.3933197593       -1.6932147085       -5.4539524373
 C        -8.3594630406       -0.8280628385       -4.7854993890
 O        -8.8093648835       -0.2715921320       -3.8079861361
 C        -6.8946311767       -0.5387694185       -5.4508195964
 C        -6.2617928353        0.7325936767       -5.0082789183
 O        -6.8393471577        1.4077347221       -4.1630947715
 C        -4.8356453596        1.1173645662       -5.4533906547
 C        -4.0373737606        2.0229575691       -4.3841493603
 C        -3.9092772016        1.4162122505       -2.9937363348
 O        -3.5357130943        0.3082680635       -2.8232723893
 C        -4.2969622018        2.3735376490       -1.7914150618
 C        -5.8527418828        2.4398830352       -1.7826542099
 O        -6.4213352186        1.4482477580       -1.3868935939
 C        -6.7231871358        3.5609089171       -2.2942873561
 C        -7.4508160835        4.3732261289       -1.1339999380
 C        -8.4280426278        3.3941257029       -0.5633296368
 O        -9.2234858279        2.9340305467       -1.3402336865
 C        -8.5462924771        3.4726183796        1.0709897467
 C        -9.3231586492        2.1689750273        1.5796308259
 O        -9.2254092185        1.1167419429        0.9962183644
 C       -10.1065235945        2.2479437449        2.9478896315
 C       -11.1756263871        1.1870116014        2.9223992764
 C       -11.4530145661        0.8810282676        4.4660185807
 O       -10.6553623860        0.4944397498        5.3003705094
 C       -13.0040631553        1.1398910889        4.9536396895
 C       -13.0382517490        2.7911214617        4.7910612311
 O       -13.2575243835        3.2518214944        3.7365430932
 C       -12.7348929079        3.6901986760        6.0312039534
 C       -13.1841471106        5.1331113583        5.6676740914
 C       -12.1416177957        5.9994508583        5.1554899794
 O       -10.9795176284        5.7222252742        5.0348379833
 C       -12.5797058000        7.4856918343        4.7205563193
 C       -13.2500499802        7.4455912809        3.2959001621
 O       -13.9559269559        8.4128414861        2.9415019079
 C       -12.8550101888        6.2775126637        2.3507747380
 C       -13.8579723309        6.4243972791        1.2040202495
 C       -13.2048215490        5.8619582134       -0.2218022416
 O       -12.0545658726        5.4483248681       -0.1914775651
 C       -13.8680256235        6.3562955104       -1.5110789409
 C       -13.0549000232        7.7605201090       -1.9763532708
 O       -11.8357059890        7.8544559945       -1.8504779300
 C       -14.1080640596        8.7766399631       -2.4898958785
 C       -13.5534847721        5.2130904175       -2.5456639990
 C       -15.4335002525        6.4755339654       -1.4223931900
 C       -13.3857605535        8.3689613878        5.7180457485
 C       -11.4206449799        8.4526533832        4.2330468323
 C       -13.9799391946        0.4963158476        3.9708676748
 C       -13.2552524982        0.7678186965        6.3850470561
 C        -7.0909514120        3.2947003361        1.5853414554
 C        -9.2198222317        4.8838973609        1.3249340100
 C        -3.6352139577        1.5565836058       -0.4923523530
 C        -3.7225801949        3.7587297605       -1.9242710130
 C        -5.8785223148       -1.8900952726       -5.3707944517
 C        -7.0905339475       -0.2870964018       -7.0347623111
 H        -9.9538637713       -1.4350450558       -6.3484437659
 H       -10.1007957018       -1.7547006521       -4.6757489000
 H        -9.1369755259       -2.7075954026       -5.4455526392
 H        -5.0564153734        1.7714667962       -6.2713681117
 H        -4.2459548299        0.3952744791       -6.0637537899
 H        -4.4379775748        3.0282280804       -4.5120392299
 H        -3.0637182070        2.0379443489       -4.7535708406
 H        -7.4553450619        3.0430516944       -2.9372035864
 H        -6.1941510790        4.2719992062       -3.0082587747
 H        -8.1130367364        5.0564760317       -1.7221932045
 H        -6.7754783433        4.9331990374       -0.4917623008
 H       -10.5208255815        3.1986573087        2.9644880682
 H        -9.3771915303        1.9648790230        3.7062507756
 H       -10.6867382357        0.2833115488        2.6273360369
 H       -12.0916116981        1.2878731079        2.3072927192
 H       -11.7351915684        3.5336283569        6.3952551728
 H       -13.2486626369        3.4103663586        6.9916574194
 H       -13.5838515712        5.5806197781        6.6180571353
 H       -14.0817605492        5.0035603692        5.0144221588
 H       -12.8711819248        5.3089931179        2.8306061731
 H       -11.7922745120        6.4185813150        2.1597394343
 H       -13.9282713464        7.5169096385        1.0597129401
 H       -14.9477427569        6.1473318747        1.1483881711
 H       -13.6558327315        9.7106651322       -2.7955371334
 H       -14.6586274284        9.1180873956       -1.5931492755
 H       -14.6923378528        8.2520392398       -3.1774598694
 H       -12.4738934203        5.0155665411       -2.5061259864
 H       -13.8324574222        5.5142455144       -3.5917530841
 H       -14.2413998296        4.4083513116       -2.3381478594
 H       -15.6374292580        7.2521272299       -0.6462211784
 H       -16.0174131217        5.5859561773       -1.2003922840
 H       -15.9450925517        6.9309773272       -2.3444787011
 H       -14.2388992213        7.7613409739        6.2435557752
 H       -13.8488379008        9.2220809396        5.2549763232
 H       -12.6278619645        8.7263070152        6.5176809095
 H       -10.6630017667        8.7399546992        5.0319691165
 H       -11.8503534820        9.2989462191        3.6484347868
 H       -10.7809906434        8.0337737990        3.4400378740
 H       -14.7820477419       -0.0731104658        4.3876681856
 H       -13.3295451182       -0.0675738161        3.1495971985
 H       -14.5789230207        1.2218530001        3.3491376816
 H       -13.2459843994       -0.3288487460        6.3279616068
 H       -14.1096416359        1.2539880025        6.6724421961
 H       -12.4771027336        0.9534211463        7.1459011473
 H        -6.9485492388        3.1292021918        2.5921120492
 H        -6.2895093708        3.8325429129        1.2093339863
 H        -6.8010139266        2.2949242411        1.2014727947
 H        -8.6264294181        5.4422013791        2.1488012413
 H       -10.2844309176        4.8177408375        1.6764517355
 H        -9.1965687069        5.5213630711        0.5028936681
 H        -2.6246543769        1.4189503534       -0.5855753892
 H        -4.1726249135        0.6499345438       -0.2564275832
 H        -3.7823809589        2.2277935017        0.3210706885
 H        -2.5805701313        3.7594124510       -2.0221448652
 H        -3.9169564090        4.4815605370       -1.1911713452
 H        -3.8700191707        4.2026338048       -2.9353623304
 H        -5.2911632781       -1.7906050708       -4.4782598345
 H        -5.3491070833       -1.8246420834       -6.3242460492
 H        -6.5558310554       -2.7687719695       -5.3748319468
 H        -8.2105628173       -0.4939037291       -7.2275473755
 H        -6.3381995773       -0.7691442519       -7.7308458796
 H        -6.9384072891        0.7554435006       -7.1234715507
 Na       -8.6738178144        0.7164042683       -1.6231777716
