117

 C        -9.2776856955       -1.9350647468       -5.2854618897
 C        -8.3913804705       -0.8757421787       -4.6655924892
 O        -8.6548673811       -0.0335441211       -3.7661540517
 C        -6.9907198937       -0.6723963707       -5.3795679718
 C        -6.1698641681        0.5893781794       -4.7194371976
 O        -6.7863839286        1.4526870957       -4.1586041545
 C        -4.7418928005        1.0315197527       -5.3226716683
 C        -3.9250905869        1.9345735830       -4.4462215885
 C        -3.9350881895        1.3891804791       -3.0066087818
 O        -3.5990193564        0.2465653628       -2.6985861483
 C        -4.3496019517        2.4011037192       -1.7863609932
 C        -5.8878155572        2.3961597881       -1.7613078789
 O        -6.5461114661        1.4038035050       -1.3492256462
 C        -6.7533204811        3.7259404849       -2.4476407233
 C        -7.4977698650        4.4051214822       -1.3503724202
 C        -8.5801409400        3.3905331634       -0.6119611605
 O        -9.2437035241        2.6026439354       -1.2433011385
 C        -8.5093819630        3.3183640667        0.9410315002
 C        -9.2842146703        2.1371711162        1.5695235319
 O        -9.0839764953        1.0407456889        1.1261155964
 C       -10.2555267130        2.4498818794        2.7521975148
 C       -11.1777484176        1.2537178960        3.0474146024
 C       -11.5608784048        0.8921804601        4.4718930763
 O       -10.6841527260        0.4786845096        5.2585738646
 C       -13.0139541200        1.1953865756        4.9266212356
 C       -13.0852542638        2.8186877927        4.8607516739
 O       -13.5096744711        3.2601620766        3.7571313596
 C       -12.5997434322        3.7478804074        5.8944522839
 C       -13.1427281624        5.2213569076        5.7681640404
 C       -11.9638393665        6.1557648682        5.0811085074
 O       -10.8710223277        5.6817140681        5.0027105759
 C       -12.4209498175        7.6009305153        4.6025878335
 C       -13.2983200360        7.5202456756        3.2808546150
 O       -14.0024466273        8.4908520210        2.9116659954
 C       -12.9271409380        6.4338799357        2.2959460371
 C       -13.8760233975        6.4489611640        1.1537044990
 C       -13.1004662510        6.0493083684       -0.2240619786
 O       -12.1770698090        5.3146414165       -0.0851976072
 C       -13.8442464789        6.4665747077       -1.4220531802
 C       -13.1327214966        7.7814023435       -2.0007238204
 O       -11.9494636674        7.9835252406       -2.1962747493
 C       -14.0435323952        8.9087828837       -2.5752405452
 C       -13.5459330125        5.3437730256       -2.5007044403
 C       -15.3480653456        6.5343946494       -1.2682177683
 C       -13.2401325367        8.2809170814        5.6719423637
 C       -11.2898949987        8.5030204003        4.1565616239
 C       -13.9077103920        0.4890051744        3.8625401482
 C       -13.2371550733        0.7594728180        6.3406909690
 C        -7.0900781818        3.3653934115        1.5688719747
 C        -9.2187233661        4.6162199861        1.3177366550
 C        -3.6965696876        1.5964977511       -0.6480497819
 C        -3.7084066297        3.7619209322       -1.8875661587
 C        -6.0683996925       -2.0011882659       -5.3180109483
 C        -7.1909231982       -0.3473645994       -6.8653512358
 H        -9.4850040719       -1.6247732809       -6.2730616794
 H       -10.2385187660       -2.2579899014       -4.8576385312
 H        -8.7777769961       -2.9127536259       -5.2276692573
 H        -4.9025838903        1.4315681246       -6.3400681121
 H        -4.0636027460        0.1817793991       -5.6366562382
 H        -4.3163062221        2.9608383619       -4.5096580397
 H        -2.9481422645        1.8785164453       -4.9273859674
 H        -7.3039816552        3.3501484281       -3.3063603168
 H        -6.0805803214        4.4503097971       -2.9301800823
 H        -7.9784185671        5.3064984145       -1.7035146437
 H        -6.6440747881        4.7250690288       -0.7184114535
 H       -10.9234041993        3.1956760502        2.3178828573
 H        -9.6070370490        2.7517647899        3.6168399165
 H       -10.8980060608        0.3278800926        2.5996971723
 H       -12.2207876881        1.5089479279        2.5488886573
 H       -11.5538808366        3.7052689443        5.8766868791
 H       -12.6937371052        3.3978258214        6.9914037170
 H       -13.6921071965        5.4051755068        6.6865295281
 H       -13.9056677885        5.1709203616        5.0000283762
 H       -13.1500769590        5.5337265512        2.7020359806
 H       -11.8637341309        6.5349022407        2.4650426010
 H       -14.3922923112        7.4049067923        1.0918883639
 H       -14.7050872939        5.7963092088        1.2144936467
 H       -13.4199284801        9.7444018396       -2.7381538358
 H       -14.7984187035        9.3007016597       -1.8242360291
 H       -14.5331701259        8.4296605374       -3.4504284716
 H       -12.4966985051        5.3383121097       -2.5025486777
 H       -13.9297875617        5.5151560950       -3.5488064477
 H       -14.0579118274        4.3796187304       -2.1318311619
 H       -15.6672359228        7.4449864422       -0.7659752267
 H       -15.8422183426        5.6874444618       -0.7088289088
 H       -15.7887983682        6.5891784211       -2.2028000146
 H       -14.0901981849        7.5576027799        6.0193504122
 H       -13.6720153854        9.2176569485        5.3241462917
 H       -12.5886161451        8.5301186603        6.5259968618
 H       -10.6160757494        8.9765596896        4.9675489530
 H       -11.7369120666        9.2282945939        3.4980714022
 H       -10.5201708277        8.0606030683        3.4471367943
 H       -14.4376071684       -0.3269966944        4.3386833290
 H       -13.3584633684        0.0789484272        2.9907715215
 H       -14.7562545480        1.0138334092        3.5093071261
 H       -13.0559824243       -0.3627772868        6.3529368266
 H       -14.1187767527        1.1901931252        6.7463655570
 H       -12.5072454644        1.0542881170        6.9412086254
 H        -7.3259957992        3.6139496502        2.6029340432
 H        -6.3573549919        4.0072254934        1.1897820262
 H        -6.5402031243        2.4449413255        1.7856898745
 H        -9.0218697087        4.8337351040        2.3994860700
 H       -10.3338355652        4.5951405681        1.1830921992
 H        -8.7050900603        5.5324119641        0.7640157113
 H        -2.5844453025        1.5106910211       -0.8649681589
 H        -4.2070381429        0.7150492137       -0.4918720414
 H        -3.7006189802        2.1175154246        0.2403537192
 H        -2.7302991440        3.8400180021       -2.4995182721
 H        -3.4059218635        4.1414164006       -0.8848851058
 H        -4.1968603716        4.6457697215       -2.4553437900
 H        -5.3028990123       -1.7395335164       -4.5982144440
 H        -5.7941626407       -2.3106076672       -6.2839397282
 H        -6.6500759837       -2.6956572157       -4.8453078442
 H        -7.6604117564       -1.2250816495       -7.2963712950
 H        -6.2964276791        0.0329601176       -7.3417648269
 H        -7.9318902745        0.4644662494       -6.8354297516
 Na       -8.6981710393        0.6009189649       -1.5993444723
