117

 C        -9.1792669690       -2.2865552076       -4.4176542901
 C        -8.3460189732       -1.0446543287       -4.3147485192
 O        -8.7027178623       -0.1388116272       -3.5219654451
 C        -7.0228979825       -0.8564667822       -5.2198934443
 C        -6.0846520635        0.3703677819       -4.8364052213
 O        -6.4761194094        1.2618616918       -4.1182332064
 C        -4.5493821509        0.4170497542       -5.2136394506
 C        -3.9992086545        1.6396554922       -4.3476791747
 C        -3.9953745214        1.2714662504       -2.9173891731
 O        -3.8291917580        0.1265682609       -2.4861181466
 C        -4.3688945706        2.3900464638       -1.7882060295
 C        -5.9871918080        2.4630080124       -1.8784909593
 O        -6.5856212444        1.5726609326       -1.2715799421
 C        -6.7249882445        3.6418561137       -2.4722627130
 C        -7.7489409224        4.3046894918       -1.4361808781
 C        -8.6008821283        3.2339015497       -0.6786380487
 O        -9.3966639290        2.4643447791       -1.1963710904
 C        -8.5402271077        3.4794179154        0.8212322547
 C        -9.4267481628        2.2094804337        1.4206578734
 O        -8.9687173950        1.1465163751        1.0619104965
 C       -10.5642358014        2.1991377024        2.4181868817
 C       -11.1580105691        0.8264143536        2.7497377224
 C       -11.6042754105        0.8905782545        4.2269426565
 O       -10.7766780689        0.8427933942        5.1723427247
 C       -13.0444768394        1.3600912763        4.7815231056
 C       -13.2619156688        2.9632057968        4.6845192413
 O       -14.1681215287        3.4159059648        4.0027389487
 C       -12.3622507764        3.7985851560        5.4786206871
 C       -12.7045958564        5.3217468159        5.6439675919
 C       -11.6293682842        6.2450720517        4.9585767949
 O       -10.6321519945        5.7647762402        4.5165809446
 C       -12.0888847353        7.8109586729        4.7144835766
 C       -13.1388205958        7.5298600226        3.4035716535
 O       -13.9904326210        8.4435219182        3.3154466872
 C       -12.9786392336        6.4379451241        2.3561391216
 C       -13.9732852125        6.7137168942        1.1623868688
 C       -13.2222030987        6.1957036462       -0.2821810326
 O       -12.2560663813        5.5172505866       -0.3121356861
 C       -13.8468562256        6.5942297653       -1.6526609802
 C       -13.1860375698        7.9158893058       -2.2661102108
 O       -12.0527350473        7.8807370631       -2.7187183925
 C       -14.1640603704        9.0890509930       -2.5510577566
 C       -13.5508762695        5.5170803992       -2.6630149500
 C       -15.4060873495        6.7648203110       -1.6749902099
 C       -12.8866246631        8.4939803057        5.8356831041
 C       -10.8150097863        8.6430706456        4.4104589306
 C       -14.2849033906        0.6043279303        4.0787821160
 C       -13.0708267161        1.1339306227        6.3983939642
 C        -7.0616695089        3.2719667102        1.4759326045
 C        -9.1141058055        4.8727847052        1.1628397390
 C        -4.0145623634        1.8808563647       -0.4671287179
 C        -3.6029764571        3.7072926068       -2.1059881408
 C        -6.1702164243       -2.1489236281       -5.1080741332
 C        -7.3503427410       -0.6220276550       -6.7336392476
 H        -9.4301036708       -2.6173949850       -5.4219821440
 H       -10.0976235483       -2.3036073190       -3.8364314699
 H        -8.7486383344       -3.0966767486       -3.8689923425
 H        -4.4380538070        0.6903021363       -6.2231251406
 H        -3.8921938490       -0.4716278190       -5.2190610177
 H        -4.4442653354        2.5904404143       -4.6883384208
 H        -2.9569183346        1.6314834276       -4.4573209515
 H        -7.4090679611        3.3379657172       -3.2636020998
 H        -5.9396624779        4.2039307165       -3.0681929210
 H        -8.4718463448        4.8480549089       -2.0865356930
 H        -7.3158794608        5.0696199571       -0.7793305715
 H       -11.3263225851        2.8160407305        2.1173874756
 H       -10.1173099263        2.5925726262        3.3565892074
 H       -10.5198339647        0.0169197809        2.6193272573
 H       -12.0069871847        0.4976459996        2.0611329468
 H       -11.3188453788        3.8207670479        5.1765854393
 H       -12.1742230618        3.3921220865        6.5486443980
 H       -12.9787097894        5.6489610300        6.6763697065
 H       -13.7191764627        5.4932055127        5.1564125432
 H       -13.1502842116        5.4469205054        2.7704862892
 H       -11.8787834860        6.3483186803        1.9968747214
 H       -14.3971980635        7.7265399977        0.9783144755
 H       -14.9056183886        6.1137525745        0.9098989702
 H       -13.5018890213        9.8730324299       -2.6692201999
 H       -14.8641931157        9.3839733116       -1.7142689304
 H       -14.7461657156        8.8580448637       -3.3947227021
 H       -12.5361922225        5.4612432515       -2.8817657997
 H       -14.1128724627        5.6975904779       -3.5834183005
 H       -13.8679318577        4.6229289754       -2.1368403792
 H       -15.9872865580        7.2189115925       -0.8426406749
 H       -15.8157987461        5.7344606258       -1.6011023008
 H       -15.7934684223        7.2315089830       -2.5935331861
 H       -13.8821155442        7.9410805201        5.8780909222
 H       -12.8101384783        9.5058231726        5.6611945679
 H       -12.4920481288        8.3326081453        6.8468529049
 H       -10.0786091853        8.3925551347        5.2308270836
 H       -10.9163451594        9.6874056082        4.5354339357
 H       -10.2346290711        8.4035641806        3.5594899606
 H       -14.4775554473       -0.4615637916        4.1021369115
 H       -14.1167960121        0.6449116767        2.9101238619
 H       -15.2492485831        1.0953874055        4.4075835597
 H       -12.7024799405        0.0127004971        6.6938257068
 H       -14.0334956535        1.4286975522        6.8269639088
 H       -12.4196855578        1.7417674271        6.8820276122
 H        -6.9589633339        3.2794250769        2.5545487989
 H        -6.4278732978        4.0651235697        1.1417543230
 H        -6.5302022841        2.2821159246        1.2877132652
 H        -9.5117876090        4.8784243501        2.1415719202
 H        -9.9570850221        5.1884847816        0.6522706611
 H        -8.2705821704        5.5443002327        1.1240841318
 H        -2.9133868895        2.0529336162       -0.2613407804
 H        -4.3795965925        0.8707046459       -0.3880003295
 H        -4.5094878161        2.4101460501        0.3225205205
 H        -3.7802191626        4.0546687310       -3.1323259063
 H        -2.6078798163        3.3993849771       -2.1662134168
 H        -3.6281833506        4.5766704946       -1.3977889106
 H        -5.6040141316       -2.4151641955       -6.0791072855
 H        -6.9127864223       -2.9773621529       -4.8940814997
 H        -5.3248848783       -1.9607429894       -4.4221995254
 H        -6.5456127992        0.1081686087       -7.0908273003
 H        -8.3529790047       -0.2085295291       -6.9675879145
 H        -7.1806788913       -1.5599691177       -7.2466478094
 Na       -8.4876523673        0.3075671851       -1.1077769034
