117

 C        -9.1140955063       -2.2953302710       -4.1951498413
 C        -8.1934678358       -1.1393893005       -4.1790613459
 O        -8.4768668814       -0.1803643177       -3.4212680009
 C        -6.8812671714       -0.9963790934       -5.2189426789
 C        -6.0884223685        0.3770164382       -4.6281248755
 O        -6.7247449253        1.2079919351       -4.0658070102
 C        -4.7079899488        0.4740735265       -5.1632275929
 C        -3.8354664741        1.4155650282       -4.3173082565
 C        -4.0134694400        1.1220072155       -2.7948444972
 O        -3.8785857200        0.0602452961       -2.2062479528
 C        -4.4877546288        2.3319220731       -1.8703556020
 C        -6.0105882511        2.4973616282       -1.8275721271
 O        -6.6654421237        1.5979685486       -1.2812919148
 C        -6.8376209068        3.6407863711       -2.5135692331
 C        -7.7138635691        4.3016167927       -1.5309101963
 C        -8.6586302490        3.3743078130       -0.7198957784
 O        -9.3391424894        2.6120200803       -1.3813051669
 C        -8.6568608751        3.3751879678        0.8566584194
 C        -9.4636425944        2.1083037370        1.3691523006
 O        -9.0326587475        1.0158995662        1.0514976281
 C       -10.6247877226        2.2891401236        2.3501433075
 C       -11.2695199436        0.9028895622        2.8082363641
 C       -11.6591845717        1.0185178590        4.2358797736
 O       -10.7279951390        0.9748294283        5.0221189509
 C       -13.1087070823        1.4561469654        4.7643196999
 C       -13.2430031618        2.9988850349        4.7369853387
 O       -14.2405675117        3.4938281138        4.1666169590
 C       -12.1760807646        3.8274282944        5.3440853663
 C       -12.6289033574        5.3385788230        5.5281113436
 C       -11.6230815855        6.2132404345        4.8869177391
 O       -10.6274133377        5.7286298971        4.3753406873
 C       -11.9178717808        7.7260150830        4.6929535036
 C       -13.0235574770        7.6556632673        3.3678558733
 O       -13.9486756133        8.4048706150        3.4109973726
 C       -12.8281443300        6.5951584623        2.2161845115
 C       -13.8438289388        6.8408911085        1.0213781445
 C       -13.2583994850        6.3927629740       -0.3244232754
 O       -12.2585411355        5.7415374182       -0.2618960492
 C       -13.9602565361        6.6300297599       -1.8350914664
 C       -13.2778396656        7.9203341723       -2.3960018969
 O       -12.1041185016        7.8041184528       -2.6327845653
 C       -14.0959562106        9.2987512158       -2.4554897731
 C       -13.5844964154        5.3848383485       -2.7432064671
 C       -15.4684208772        6.7178605041       -1.7178038610
 C       -12.7466497105        8.3478719629        5.8774857875
 C       -10.8039978428        8.6971855480        4.3145053249
 C       -14.2654212008        0.7110102496        4.1195104319
 C       -13.1867059109        1.0814225736        6.3268760620
 C        -7.2939263230        3.2177429514        1.2815763318
 C        -9.1879761313        4.8430908469        1.3580789965
 C        -3.7951434565        1.9662011787       -0.4507056185
 C        -3.7201039293        3.6650003006       -2.2519804624
 C        -6.1533901571       -2.4601143659       -5.1126813848
 C        -7.4820882504       -0.8153863830       -6.6417276384
 H        -9.2379212467       -2.8264245312       -5.0749093682
 H       -10.0820642464       -2.0169841729       -3.8368888254
 H        -8.9849226621       -2.9976948633       -3.3663537258
 H        -4.5842002247        0.6025857997       -6.2465795037
 H        -4.2730056721       -0.5353821650       -5.0873835923
 H        -4.1559791939        2.4212921156       -4.4884749846
 H        -2.7912575525        1.2737764965       -4.5662856824
 H        -7.3881951685        3.3534701688       -3.4492871996
 H        -6.1449748358        4.4159391880       -2.9428050310
 H        -8.1480700680        5.1247949334       -2.0920034956
 H        -6.9540972461        4.8646364713       -0.9237154384
 H       -11.3427453157        3.0694604675        2.0385526284
 H       -10.1140405092        2.6542692222        3.2312764277
 H       -10.4748548622        0.1701331162        2.7777214567
 H       -11.9570873369        0.4206815273        2.0661379828
 H       -11.2775362662        3.8572544371        4.7994852358
 H       -11.8123936159        3.3537050240        6.3097241314
 H       -12.9626236381        5.7579683406        6.4897526625
 H       -13.6106361125        5.2680680269        5.0104073672
 H       -13.1897371319        5.7913347602        2.7615179490
 H       -11.8877082837        6.2140758235        1.7176236073
 H       -13.9198602707        7.9147202277        0.6360450407
 H       -14.8798057742        6.5539398436        0.9054794832
 H       -13.4675107069       10.1407531275       -2.6971079863
 H       -14.5273464593        9.4693647285       -1.4894740894
 H       -14.9680422070        9.1459246715       -3.0965779439
 H       -12.5399843379        5.2420807176       -2.5306251821
 H       -13.7326112040        5.5567022811       -3.8024028794
 H       -14.0759176071        4.4820345707       -2.3023488632
 H       -16.0580805286        7.3430801232       -1.0013930254
 H       -16.0117109680        5.7011605517       -1.5964910881
 H       -15.7607897391        7.1082579675       -2.6720158843
 H       -13.5729710612        7.7219717564        6.1608180037
 H       -12.7970316887        9.5084450394        5.6454451127
 H       -12.1052350065        8.3321681388        6.7887206657
 H        -9.8030529243        8.7052750879        4.7853503324
 H       -11.1877665571        9.6987568476        4.5874575747
 H       -10.5043104430        8.6011420217        3.1956575302
 H       -14.0821354026       -0.3886281529        3.8273149294
 H       -14.4211255903        1.0049615195        3.1737526620
 H       -15.1929940121        0.7833888152        4.7668098061
 H       -13.4063137496        0.0924396458        6.4886055879
 H       -13.7898401675        1.7511855499        6.9573614495
 H       -12.1582431169        1.2803651962        6.6494950256
 H        -7.1054813212        3.2913269057        2.3398999562
 H        -6.6616372780        3.9787847295        0.8952561533
 H        -6.9097035330        2.2855145669        1.1114977062
 H        -9.1840637774        5.1316845318        2.3494572711
 H       -10.2517980756        4.9619834915        1.1574634647
 H        -8.5107868853        5.4940600734        0.7058969447
 H        -2.6970191663        2.0862921949       -0.5825210418
 H        -4.0882170013        1.0125556086       -0.2258552697
 H        -4.0775592772        2.5504470339        0.3461580407
 H        -4.3180384830        4.4215226338       -2.8102375171
 H        -2.7503994671        3.5104773131       -2.9969515166
 H        -3.2736909307        4.1369001560       -1.3137185524
 H        -6.0475661478       -2.8748756851       -6.1728735224
 H        -6.6663801606       -3.1918421951       -4.4645660830
 H        -5.1139022526       -2.1872669048       -4.9929572076
 H        -7.5054573767        0.1879551964       -7.0243573999
 H        -8.5307577561       -1.2530117782       -6.6439871923
 H        -6.8274323477       -1.5343676514       -7.3136156491
 Na       -8.3602083180        0.3049839751       -0.9495809325
