117

 C       -10.5436350524        8.7070576979       -1.7743706911
 C        -9.6033250072        9.7978182153       -2.1062540511
 O        -9.2536146433       10.6090897795       -1.2309409780
 C        -8.6771741252        9.5688230373       -3.3663949188
 C        -7.6101870080        8.3784577839       -3.1278770262
 O        -7.4769139362        7.6512953262       -4.0551907991
 C        -6.8969440813        8.1980484982       -1.7254532477
 C        -5.8891187426        7.0542254292       -1.8571941236
 C        -6.5226077602        5.7273922006       -1.5707401547
 O        -7.6676569130        5.5719737617       -1.1735306246
 C        -5.6706147840        4.4535460520       -1.7218583011
 C        -5.6369136164        3.9769943944       -0.2718177237
 O        -4.8511315862        4.4056528448        0.5581141190
 C        -6.7636244665        3.0775829864        0.2689231020
 C        -6.7416683798        3.0399862995        1.8384060376
 C        -7.2834509498        1.8012678099        2.5156716578
 O        -7.9101037365        0.9730807401        1.8337724342
 C        -6.7257750505        1.5457257575        3.9521354545
 C        -7.6688855404        2.5773935970        4.8047120431
 O        -7.2072272279        3.5851727385        5.2586392231
 C        -9.1114975472        2.2757194250        5.0752145063
 C       -10.0799488392        3.4382801175        4.8395605930
 C       -10.4864930807        3.7569775301        3.3029692703
 O        -9.7223617348        3.5519881611        2.3930159110
 C       -11.9417098814        4.2632810460        3.0415147251
 C       -12.8482933064        3.1132978573        2.3977290076
 O       -12.2728731468        2.2084427820        1.7637174247
 C       -14.3233783574        3.2581683984        2.3234506607
 C       -14.9759054580        2.7798494449        1.0354534912
 C       -14.4527100252        3.5374598086       -0.1931188198
 O       -13.6088391910        4.3537646506       -0.0490759215
 C       -15.0335224402        3.1602503385       -1.6363472940
 C       -14.1549008512        1.9060074340       -2.0806137834
 O       -14.6804987635        0.7734200746       -1.9005151350
 C       -12.7255612652        2.0457238986       -2.7486711555
 C       -12.0619974324        0.7605952536       -3.0406022132
 C       -10.7321262264        0.7043497122       -2.1668527485
 O       -10.3929092303        1.7039490495       -1.5599392408
 C        -9.9342909960       -0.6381165710       -1.9527483099
 C       -10.7604512472       -1.2949518026       -0.7682430127
 O       -10.8702995215       -0.6190433379        0.2626459836
 C       -11.4822073996       -2.5657936707       -0.8615059204
 C        -9.8518090231       -1.5335264489       -3.2086133220
 C        -8.4733487674       -0.4903701583       -1.4764208000
 C       -16.5422485509        2.6743472096       -1.5180598362
 C       -14.7931787392        4.4625139869       -2.4958937922
 C       -12.4869845639        5.0442297420        4.2731875289
 C       -11.8032695092        5.3684445044        1.9181007571
 C        -6.9560764398        0.0440881768        4.3320387738
 C        -5.3446531572        1.9284548013        4.1416870763
 C        -6.1447876242        3.3278529889       -2.6726353481
 C        -4.2179133380        4.7210577850       -2.1565616185
 C        -9.4803024926        9.4232724391       -4.6956820076
 C        -7.6241928189       10.7388357424       -3.4910657123
 H       -10.0799028480        7.7350313688       -1.5059942675
 H       -11.1805863843        8.4393388806       -2.6552356282
 H       -10.9638291045        8.9245027696       -0.7755248760
 H        -7.5724485976        7.9355782252       -0.9744258008
 H        -6.4623889842        9.0587120581       -1.3396354972
 H        -5.1570212983        7.2356705401       -1.0433216509
 H        -5.4099889442        7.1367371478       -2.8114659171
 H        -6.5745630533        2.0871312538        0.0104240661
 H        -7.6780506309        3.3133343803       -0.2389248258
 H        -7.5085907412        3.7837073031        2.1998181225
 H        -5.7408788439        3.2896372866        2.1673489550
 H        -9.1326787613        2.0318399196        6.0773925083
 H        -9.5797091463        1.4282952852        4.5098049048
 H        -9.5077035676        4.2897212469        5.3109807687
 H       -11.0276092557        3.2129631968        5.2884940077
 H       -14.6217671590        4.3436885020        2.4715091668
 H       -14.7696478638        2.7087972631        3.2016207666
 H       -16.0448553035        2.6422327352        1.1665685613
 H       -14.5608540572        1.7837007259        0.8944403031
 H       -11.9741167001        2.6414332754       -2.2347217825
 H       -12.9099228556        2.5941629961       -3.7174251473
 H       -11.8698251660        0.6927445252       -4.0378499060
 H       -12.6566928605       -0.0618812316       -2.8537187115
 H       -11.5231276291       -3.0728328206        0.0897711204
 H       -11.0270274960       -3.1314485941       -1.6228066061
 H       -12.4515577779       -2.4465764528       -1.2992768136
 H        -9.2162210623       -1.0551424583       -3.9123391764
 H       -10.7945298000       -1.8105081380       -3.7078419046
 H        -9.2361248399       -2.3998506403       -2.8237138129
 H        -8.3932938228        0.4490745432       -0.7896831439
 H        -7.8089956797       -0.3404577131       -2.2299930669
 H        -8.1376036421       -1.3016015998       -0.8249897443
 H       -16.4813352449        1.8715608113       -0.7441486402
 H       -16.8878484288        2.2868710545       -2.4740875363
 H       -17.2014329568        3.4520323055       -1.2790497213
 H       -14.1431296320        4.4036986299       -3.3845265458
 H       -14.3175088092        5.1875904521       -1.8672936717
 H       -15.7625724781        4.8855914949       -2.7658494885
 H       -11.9299387697        5.9066186766        4.3427528959
 H       -12.6265591070        4.4950779051        5.1468404381
 H       -13.4312381770        5.4417114514        3.9020772116
 H       -10.9092902191        5.9563660908        2.1587646532
 H       -12.6721418519        6.0807713584        2.0285669618
 H       -11.5446930327        5.0743413130        0.9178442397
 H        -6.4367058033       -0.1612745942        5.2422311896
 H        -6.6883584228       -0.6925090497        3.5965348939
 H        -8.0742753214       -0.1143111002        4.5018161564
 H        -4.6784074918        1.2414528190        3.6267486273
 H        -5.0221979487        1.9283379001        5.2105207572
 H        -4.9909182036        2.8789848681        3.8104786023
 H        -7.2079679497        3.4590559313       -2.8894353009
 H        -5.9955465799        2.3203774296       -2.3863116858
 H        -5.7328847026        3.3529884165       -3.6380666103
 H        -4.2048697122        4.9743543451       -3.1860391756
 H        -3.6428895325        3.8200346693       -1.9161891777
 H        -3.8449606184        5.6077062984       -1.6213188835
 H        -8.7947600170        9.3358410239       -5.5423412812
 H       -10.1958117473       10.1939928359       -4.6740929973
 H        -9.9353680418        8.4420088930       -4.6191526399
 H        -7.1281744520       10.9832120846       -2.5392504778
 H        -8.0001060690       11.7036791709       -3.7755099739
 H        -6.8020774639       10.3647525248       -4.1242923611
 Na       -9.9997876370        1.6204955871        0.8925531279
