117

 C        -9.0810170562       -2.6934899985       -3.2434678838
 C        -7.8294146525       -1.8981907950       -3.2752790111
 O        -7.3717038646       -1.3207779471       -2.2483326147
 C        -7.0891133791       -1.8216669729       -4.6314161654
 C        -6.1462608245       -0.5043316715       -4.5053683357
 O        -6.6551440900        0.6247107095       -4.5208153809
 C        -4.6014429608       -0.5793718201       -4.5622903564
 C        -4.0408576263        0.6829868651       -4.1519842485
 C        -4.1080785754        1.0898867165       -2.6487065585
 O        -4.1330765571        0.2261752944       -1.7294855828
 C        -4.2308760904        2.5728604928       -2.1113206152
 C        -5.8583775799        2.5638467703       -1.7741427230
 O        -6.2444414882        1.7158141529       -0.9791759980
 C        -6.7787440584        3.4324904487       -2.5229276289
 C        -7.6802751718        4.3675084987       -1.6309121390
 C        -8.7471701633        3.4234594519       -0.9660869485
 O        -9.2364312448        2.6085126074       -1.7155713091
 C        -8.9728476363        3.4646487268        0.6951761769
 C       -10.0531070900        2.2066922610        0.9972874240
 O       -10.0502252033        1.0766100051        0.4800884343
 C       -11.0057197431        2.4651992805        2.0482935999
 C       -11.7606368846        1.2740179786        2.6144977573
 C       -11.8581660588        1.2019766350        4.1611898339
 O       -10.8799356058        0.7977734702        4.8409597127
 C       -13.1777024496        1.6688294992        4.9671856920
 C       -13.2923729982        3.1865962960        5.0678017640
 O       -14.3618844100        3.7284705321        4.7933581465
 C       -12.0734889084        3.9663188545        5.5687181898
 C       -12.3511790929        5.5444271249        5.5556625408
 C       -11.6637253639        6.3198604322        4.4366807911
 O       -11.1078661047        5.7320078565        3.5399812317
 C       -11.6455565340        7.8425570085        4.4389526020
 C       -12.6947427333        8.0677043398        3.2530529467
 O       -13.8649316374        8.2132509761        3.5120549943
 C       -12.2318295385        7.8313306746        1.8000702087
 C       -13.3672113032        7.5018801482        0.9151358627
 C       -13.1454121853        6.7064434870       -0.3608298425
 O       -12.3139192763        5.8415075319       -0.3422327914
 C       -13.8814253585        6.9179776722       -1.7229990737
 C       -13.3723828267        8.0659958424       -2.6517959152
 O       -12.4489589574        7.8737672420       -3.3949132370
 C       -14.0150332908        9.5006456746       -2.5859396508
 C       -13.6888887094        5.6374131024       -2.5975423756
 C       -15.4565299674        7.2451369899       -1.5618451915
 C       -12.0583961781        8.5885320555        5.6923034869
 C       -10.2068003498        8.4325041369        3.9718848267
 C       -14.3878934764        1.2831181699        4.1603574295
 C       -13.1040758268        1.0964065915        6.4008723555
 C        -7.8085526971        3.0104394838        1.5041230341
 C        -9.4688703873        4.8838026004        1.0909361069
 C        -3.3748222100        2.6423534934       -0.7128888982
 C        -3.6612761608        3.6823293521       -3.0547604020
 C        -6.2095141269       -3.0940914852       -4.8555047524
 C        -8.0115450107       -1.4160896454       -5.7957083490
 H        -9.1031616678       -3.6214346544       -3.7727806404
 H       -10.0333550494       -2.2363796987       -3.5280721677
 H        -9.2966167062       -3.0837302892       -2.2720043279
 H        -4.0719323096       -0.7837532053       -5.5037588453
 H        -4.1513190909       -1.3086958854       -3.8360296425
 H        -4.6723755827        1.4352261958       -4.7019986000
 H        -3.0185178903        0.6144000219       -4.5113310044
 H        -7.4876013720        2.9252892503       -3.1447163947
 H        -6.1676280219        4.0951804345       -3.1562278803
 H        -8.2035864314        5.1160558966       -2.2654075120
 H        -7.1409728887        4.9979359153       -0.9236847389
 H       -11.6326711645        3.3445352854        1.8097847453
 H       -10.3924688845        3.0647184689        2.8784186910
 H       -11.2904395255        0.3572069450        2.2338667670
 H       -12.8115273796        1.3104628327        2.0674666290
 H       -11.1832554615        3.9862246952        5.0084941618
 H       -11.8131062997        3.7798321386        6.6385441222
 H       -12.2147768291        5.9012996328        6.5588141436
 H       -13.4215477600        5.7205495777        5.4222594500
 H       -11.4574122036        7.0186893733        2.0363700275
 H       -11.8489918530        8.7961534454        1.4150978919
 H       -13.9557959171        8.3416541344        1.0807623422
 H       -13.8109772758        6.7819776565        1.6008653493
 H       -13.4039079085       10.1111432040       -3.1878646968
 H       -14.1202125092        9.7844882162       -1.4669777168
 H       -15.0200091638        9.5775774936       -2.9865802953
 H       -12.8778892447        5.5051478630       -3.2392701157
 H       -14.7288126255        5.4322768203       -3.0273437906
 H       -13.5022048763        4.8380544490       -1.8049637204
 H       -15.7054464276        8.1506474845       -0.9438328273
 H       -15.9393718311        6.4171400940       -1.0255624900
 H       -16.0462563805        7.2203584293       -2.4865625381
 H       -13.1864704600        8.5269392440        5.7995632964
 H       -12.0160667151        9.6690573893        5.5814367206
 H       -11.4926535796        8.2164509452        6.5028540364
 H        -9.4820220239        8.5479155554        4.8909147519
 H       -10.2387467859        9.4862906593        3.6601122933
 H        -9.6923610539        7.8899177560        3.1044828351
 H       -14.6187283974        0.2608763023        4.3371303572
 H       -14.2132298065        1.3967744954        3.1037682627
 H       -15.2641374943        1.8516494761        4.3112570144
 H       -13.0797321364        1.9605249649        7.0601724212
 H       -12.0845438185        0.6440500061        6.6539279156
 H       -13.8095504732        0.3012486230        6.5386514819
 H        -7.8090582272        3.2654460757        2.5802870453
 H        -6.8492152239        3.3119689689        1.1663230740
 H        -7.7465195906        1.9046494378        1.4782887278
 H        -9.7034920571        4.9439955250        2.1449900448
 H       -10.2719284325        5.3135221752        0.4311654123
 H        -8.4887497398        5.5266404649        1.0222177959
 H        -2.3347710491        2.7597687429       -1.1796234075
 H        -3.2601854425        1.7280068912       -0.2474779659
 H        -3.6272479922        3.3621360512       -0.0306957759
 H        -3.8500261467        4.5427443568       -2.4189234515
 H        -4.2114850771        3.8702153636       -4.0320134343
 H        -2.5575405613        3.4896919261       -3.1078774034
 H        -6.8172101946       -3.8811787196       -5.3031956685
 H        -5.7907083391       -3.4090099658       -3.9065410065
 H        -5.3645893851       -2.8720355035       -5.4563876824
 H        -7.5843341133       -1.5046156517       -6.8248800558
 H        -8.2606920199       -0.3534118247       -5.6807714902
 H        -8.9423691098       -2.0236668037       -5.7689742329
 Na       -8.3510246502        0.3654760965       -1.2138064134
