117

 C        -9.1124531194       -2.7248440021       -2.9194139573
 C        -7.7732079242       -2.0300807442       -3.2415613361
 O        -7.1060325679       -1.4862496221       -2.3798872155
 C        -7.1484576854       -1.9300403176       -4.6977164746
 C        -6.1371525971       -0.6688039619       -4.4511975119
 O        -6.6489657111        0.3602019787       -4.3163592147
 C        -4.6127789160       -0.7639862904       -4.4873166736
 C        -3.9280437024        0.6825449642       -4.0721994271
 C        -4.0779321226        0.9739718706       -2.5867396054
 O        -3.9305042598        0.1268694408       -1.7831465981
 C        -4.2778979297        2.6226794756       -2.0689464798
 C        -5.8052498673        2.6643319970       -1.6551381102
 O        -6.2454783599        1.8238953413       -0.9043696671
 C        -6.6689604360        3.5862175426       -2.5169863426
 C        -7.6062200419        4.3711184688       -1.5200604320
 C        -8.6541712394        3.4330282160       -1.0458985841
 O        -9.1578632485        2.5976108294       -1.7605599421
 C        -9.0976896765        3.3558972620        0.4265777728
 C       -10.1623757734        2.2694692051        0.8063839347
 O        -9.9956666488        1.1995360437        0.2949349629
 C       -11.1000558618        2.6106430268        2.0480905526
 C       -11.8065575331        1.4118128131        2.6529467655
 C       -11.8619568314        1.2645609065        4.1928373753
 O       -10.9284607920        0.6837551097        4.7101123430
 C       -13.1671281631        1.7431659006        4.9640220012
 C       -13.3013517664        3.3290038661        5.1062782328
 O       -14.3092125074        3.9404381864        4.8999847978
 C       -12.1155105992        4.1520041649        5.6773851159
 C       -12.4072728179        5.6577611208        5.6262815564
 C       -11.7091953054        6.2758668181        4.4561967141
 O       -11.2478640057        5.6493819543        3.5416376109
 C       -11.5646766416        7.9228424689        4.4207842331
 C       -12.5634763057        8.1066051537        3.2677637927
 O       -13.7443200055        8.1092847890        3.5185359550
 C       -12.1679457589        8.0449159130        1.7366522571
 C       -13.4728802008        7.5044258953        0.8907611070
 C       -13.0748156173        6.7543456168       -0.4063561457
 O       -12.2859675525        5.8623550571       -0.3697726611
 C       -14.0006600509        6.8800781886       -1.8612629175
 C       -13.3673917561        8.1576509431       -2.7148249487
 O       -12.4983276256        7.9094778477       -3.5444516358
 C       -13.9638892882        9.5806177084       -2.6703030991
 C       -13.8174693702        5.5846536834       -2.6336843964
 C       -15.3888364404        7.3323317942       -1.4644069004
 C       -11.9898416609        8.5926712245        5.7394861965
 C       -10.0833720767        8.2422030129        4.1477903120
 C       -14.5064101240        1.2378264163        4.2677964274
 C       -13.1487926553        1.2512593917        6.5015494592
 C        -7.8349533537        3.0272468527        1.2757530699
 C        -9.6324032672        4.7600812387        1.0778222039
 C        -3.4564168641        2.7881735161       -0.8042891748
 C        -3.7927051787        3.6686938446       -3.1247491292
 C        -6.3469047713       -3.2575988035       -4.8826258772
 C        -8.1557512636       -1.7411632047       -5.7880754636
 H        -9.5445908790       -3.5383795652       -3.4740620946
 H        -9.9952651747       -2.0467455145       -2.8986640792
 H        -9.1249179178       -3.2159156236       -1.9075107553
 H        -4.2264351991       -0.9167137598       -5.4755644163
 H        -4.1502265553       -1.5913853060       -3.8367157002
 H        -4.4456802179        1.4480480331       -4.7397432591
 H        -2.8385593671        0.5405569283       -4.2803226574
 H        -7.3688912469        3.1411176180       -3.1484970507
 H        -6.0977978464        4.3386508517       -3.0569209020
 H        -8.1236461957        5.1085631222       -2.1181124944
 H        -7.1804407600        4.9512007887       -0.7108081737
 H       -11.7406693067        3.4894704466        1.9613939272
 H       -10.4317070404        3.1099213728        2.8834610059
 H       -11.3305937175        0.5246600893        2.2477869596
 H       -12.8615249749        1.4625304740        2.2215287057
 H       -11.1356153323        4.1772968157        5.1655780764
 H       -11.9225350432        3.9824657195        6.8321927728
 H       -12.2412055152        6.0872044462        6.5943401451
 H       -13.4677633503        5.8394369860        5.4769729940
 H       -11.4446378437        7.2951700143        1.6046783180
 H       -11.8120159987        9.1481359053        1.4336972672
 H       -13.9949919514        8.4437563906        0.6940132673
 H       -14.0522838531        6.9881781604        1.6280922796
 H       -13.4672599855       10.3296132485       -3.3218029219
 H       -14.2568405745        9.8510250260       -1.6593400242
 H       -14.9654438629        9.3869888623       -3.1791806232
 H       -12.7912069798        5.6857072906       -2.9412909011
 H       -14.4956964690        5.5561504114       -3.5040628281
 H       -13.8302707383        4.5878474236       -2.0655184171
 H       -15.4903220716        8.2803353108       -0.9606940026
 H       -15.9069085979        6.5434372890       -0.8732105999
 H       -15.9815502916        7.3183447201       -2.3015961411
 H       -12.9728743219        8.5045128641        5.9104029106
 H       -12.0353299838        9.6925411247        5.5087891539
 H       -11.3370343540        8.3721850574        6.5046289503
 H        -9.6134008308        7.8211259801        5.0035936667
 H        -9.6540663233        9.2470946036        4.0684776445
 H        -9.7111929851        7.7114928115        3.2380646831
 H       -14.4069497751        0.0942363448        4.1641785312
 H       -14.6054345730        1.7012518426        3.3745999918
 H       -15.4720433009        1.4324885991        4.7629447934
 H       -12.9300703108        2.0911263796        7.0105582939
 H       -12.2947675238        0.5426782248        6.8315131056
 H       -14.1131683929        0.7406159263        6.7964050593
 H        -7.9549871245        3.2554332615        2.4145193458
 H        -7.1236114650        3.8831780412        0.9522449159
 H        -7.2061786514        2.1516354019        1.2179064172
 H        -9.2683859647        4.8217675747        2.0855682617
 H       -10.7151275442        4.9641343640        0.9319772297
 H        -9.0613965928        5.6153272772        0.5575065605
 H        -2.4158546403        2.6779762319       -1.1011887537
 H        -3.5819957499        2.0671918909        0.0621764292
 H        -3.7051984149        3.8656539094       -0.5416033922
 H        -4.2629576600        4.5702662371       -2.9197569364
 H        -4.1665897237        3.3171291791       -4.0847286396
 H        -2.7791575763        3.7240899634       -2.9957329601
 H        -6.8522637013       -3.8018636016       -5.6397777631
 H        -6.3643168172       -3.8273112468       -4.0065918028
 H        -5.3097475312       -3.2316234235       -5.0508587708
 H        -7.7643134462       -1.1684996491       -6.5385609324
 H        -9.0444161684       -1.1792154931       -5.5029939427
 H        -8.4143574314       -2.6966255519       -6.2631371133
 Na       -8.2803201390        0.3717264339       -1.1896664339
