117

 C        -8.9837637987       -2.6730679208       -2.7385784051
 C        -7.7204557786       -2.0963186125       -3.1489445027
 O        -7.0722298978       -1.5814525812       -2.2624838073
 C        -7.1189902975       -2.1131562653       -4.6766699582
 C        -6.1244659573       -0.7202717583       -4.4983835149
 O        -6.7577943507        0.2815290020       -4.1432899946
 C        -4.6414289858       -0.8925407444       -4.3880487920
 C        -3.9037139518        0.6597056228       -4.1011263369
 C        -3.9466260017        0.9554156909       -2.5627666478
 O        -3.7884503021        0.1078166267       -1.7396835494
 C        -4.2300256815        2.5086134691       -2.1283846838
 C        -5.7354079371        2.6114875554       -1.8263384057
 O        -6.2478046523        1.9671001069       -0.9184908036
 C        -6.6465301884        3.7610210849       -2.4827081553
 C        -7.6896920841        4.4024071083       -1.4374356203
 C        -8.7667393586        3.3848628487       -1.0648507711
 O        -9.0933373096        2.5300225938       -1.9045066996
 C        -9.1356420387        3.4254032070        0.4455103091
 C       -10.1003002530        2.2969702812        0.8759922571
 O       -10.1220826368        1.2414019312        0.2507461960
 C       -11.0602902337        2.5862098318        1.9923805483
 C       -11.9596078259        1.4024261116        2.5263459450
 C       -11.9602068252        1.3493279699        4.2073525658
 O       -11.1017879663        0.7121344161        4.7048377258
 C       -13.1341017647        1.9382144472        4.9995376144
 C       -13.2965781831        3.4830029938        5.1707103404
 O       -14.3617319530        3.9865039523        4.8774613662
 C       -12.1214145024        4.2067875151        5.8190321704
 C       -12.3513253962        5.7360794381        5.7138747446
 C       -11.6719456756        6.3273667968        4.5479521061
 O       -11.3413266008        5.5982001225        3.5771462250
 C       -11.4159860765        7.8326961958        4.3767842708
 C       -12.6045693428        8.1239754074        3.1342892886
 O       -13.7182172623        8.1218076965        3.5801595513
 C       -12.1733584151        8.1509894485        1.6031204269
 C       -13.4765052977        7.6286237721        0.7023427654
 C       -13.0601158911        6.8328826063       -0.4873651163
 O       -12.2103741359        5.9172244040       -0.4157329778
 C       -13.9328785283        7.0341331539       -1.8061835110
 C       -13.3429533730        8.1519689156       -2.7957654617
 O       -12.4864952274        7.9099006641       -3.6167370972
 C       -13.9503525912        9.5025518318       -2.7064137212
 C       -13.9558277384        5.7597420886       -2.5804673046
 C       -15.4185875985        7.2848403683       -1.3311281522
 C       -11.9666276720        8.5821107957        5.6774227622
 C        -9.9374303379        8.0425143046        4.2010078579
 C       -14.4453313076        1.2092674313        4.4218747346
 C       -13.1379071887        1.3131304962        6.4929849340
 C        -7.7982448964        3.0592280368        1.2117722190
 C        -9.7205990072        4.8865559281        0.8293371511
 C        -3.4513188394        2.8254143854       -0.7551264064
 C        -3.9177467913        3.4945317509       -3.2391606694
 C        -6.4117014472       -3.5599337393       -4.9081370267
 C        -8.2416882760       -1.9825561608       -5.7527449712
 H        -9.5649954917       -3.3301615835       -3.4217715792
 H        -9.7564306194       -1.9233196932       -2.5757380803
 H        -8.9774478828       -3.3173506800       -1.8435472037
 H        -4.1995214148       -1.3741538602       -5.2827431621
 H        -4.4829614071       -1.5394864061       -3.5302109500
 H        -4.4171307665        1.3715430080       -4.7219901973
 H        -2.7865042497        0.6300557376       -4.3091862556
 H        -7.3795660352        3.3001865663       -3.1830663735
 H        -6.1672363345        4.6000992883       -2.9664840128
 H        -8.0869993603        5.2839953126       -1.9182077304
 H        -7.2340139316        4.7527377821       -0.5040526348
 H       -11.6890309667        3.4189818951        1.6398720032
 H       -10.7296162640        3.1263007059        2.8258405910
 H       -11.5049915145        0.4361253812        2.1856465690
 H       -12.8804656856        1.5393483668        2.1400739496
 H       -11.1314526088        3.9805847044        5.2473583049
 H       -12.0741314004        3.9365136686        6.8622612931
 H       -12.1332434692        6.2308014183        6.6705386979
 H       -13.4397906437        5.8629141881        5.6182792190
 H       -11.4758115361        7.3430826328        1.3617493592
 H       -11.7973030267        9.1692813767        1.4789812519
 H       -13.9152581035        8.5790024705        0.3007510332
 H       -14.1852138457        7.1680502043        1.4264816232
 H       -13.2606973925       10.2271708825       -3.2489719766
 H       -14.1077429162        9.6676246100       -1.6847568300
 H       -14.9315341825        9.6497048345       -3.2262431646
 H       -12.8394225035        5.4684135678       -2.7070130778
 H       -14.3493456515        6.0189121325       -3.5470111143
 H       -14.5226147503        4.9467677418       -2.2263751409
 H       -15.7037930022        8.1828501651       -0.8675422839
 H       -15.8451130070        6.4323201054       -0.8456546367
 H       -15.9551142521        7.2074998620       -2.2789603834
 H       -13.0147499322        8.4709984202        5.8530178627
 H       -12.0057003797        9.5950599206        5.4607937259
 H       -11.2832999684        8.4330255508        6.5292912095
 H        -9.4348060553        7.4918570216        4.9489486132
 H        -9.6328371971        9.0898256643        4.2371494998
 H        -9.6094314541        7.7626221868        3.2647863828
 H       -14.2059689221        0.1936344289        4.0854485702
 H       -14.9914592307        1.9216098752        3.6266917826
 H       -15.2557843856        1.0567429155        5.1683692494
 H       -12.5384146412        1.9767074587        7.2399481425
 H       -12.5769770273        0.4479112955        6.4526614193
 H       -14.1562883952        1.0019735250        6.8534904862
 H        -7.9158320785        2.6785220411        2.2589092486
 H        -7.0229333106        3.9245510523        1.2419576599
 H        -7.1184000202        2.2918810402        0.7095976190
 H        -9.4054189095        5.2390640367        1.8578032676
 H       -10.7812879323        4.9436800478        0.6107782499
 H        -9.3793362528        5.5666018371        0.1670816760
 H        -2.4776830957        2.4103278319       -0.6194241240
 H        -4.0847808864        2.4268050439        0.1325256131
 H        -3.5591551485        3.9858452109       -0.7980940512
 H        -4.2759984966        4.4814315498       -2.8668974692
 H        -4.4639959865        3.1495396649       -4.0332232374
 H        -2.8605478288        3.3904995512       -3.3192056111
 H        -6.8306640175       -3.8855637380       -5.8155333539
 H        -6.5188259775       -4.3230213506       -4.1751890995
 H        -5.2994549935       -3.5989613976       -4.9735056746
 H        -8.1206527919       -0.9743833816       -6.1756444164
 H        -9.2344728591       -1.9459908059       -5.3865005398
 H        -8.1549331596       -2.5971075077       -6.5873130347
 Na       -8.1621947819        0.4376760087       -1.1661614673
