117

 C        -9.0130746873       -2.7497420458       -2.7059086556
 C        -7.6659634734       -2.2145258381       -2.9864658610
 O        -7.0035887463       -1.5523533869       -2.1845113126
 C        -7.0614363803       -2.1969775090       -4.4874665104
 C        -6.1776707482       -0.9317854088       -4.3869194676
 O        -6.8298731351        0.1408286536       -4.1944458896
 C        -4.6677598791       -0.9281577153       -4.2354455714
 C        -4.0819831541        0.4589095334       -4.0831252692
 C        -3.9451715738        0.9073342732       -2.6083131172
 O        -3.6306802102        0.1417520450       -1.6636403479
 C        -4.3255899058        2.5102008157       -2.2970249756
 C        -5.8106108729        2.7036328807       -1.8614889414
 O        -6.2837783542        1.8760065065       -1.0553684785
 C        -6.6183164943        3.8292262609       -2.4617828161
 C        -7.6641010874        4.4150632007       -1.5778617621
 C        -8.6853884824        3.2937232659       -1.0210962081
 O        -9.1111387668        2.5224066849       -1.8906456250
 C        -9.1584344693        3.4784666404        0.4405015166
 C       -10.2329738028        2.2713752117        0.8191071332
 O       -10.1424192848        1.1273573074        0.2946530789
 C       -11.1736431194        2.6108800651        2.0046447117
 C       -12.0518583247        1.4563932874        2.6058999825
 C       -12.0642643251        1.3862668662        4.1105283487
 O       -11.1581165300        0.7853917294        4.6865129614
 C       -13.2540520778        1.8853109248        5.0905007398
 C       -13.3924430618        3.4470815994        5.2217192318
 O       -14.3542962052        4.0856478700        4.8134387076
 C       -12.2370352307        4.1579455054        5.9334341328
 C       -12.2891163880        5.7780248659        5.8353586382
 C       -11.6891972968        6.2443123224        4.5176006007
 O       -11.3375368448        5.4848281526        3.5998257457
 C       -11.4087338140        7.7876841388        4.2440850739
 C       -12.5225183886        8.0870246451        3.1492678205
 O       -13.7002843399        8.2257637347        3.4573883200
 C       -12.1462050513        8.0960930996        1.7270980783
 C       -13.3090664525        7.9109853921        0.6965274412
 C       -13.0840924729        6.9830274494       -0.5520855553
 O       -12.2169957998        6.1206439338       -0.5343495997
 C       -13.9315489595        7.0533252928       -1.8715871717
 C       -13.3086685348        8.1984201433       -2.7484970471
 O       -12.5192266123        7.7754384141       -3.5363910040
 C       -13.9879618964        9.6266732760       -2.6788450290
 C       -13.9848805854        5.6771884395       -2.6380785813
 C       -15.4147417883        7.3369583474       -1.3072298127
 C       -11.9135679778        8.6418014860        5.4999800217
 C        -9.9235793912        7.9936477970        4.0674488436
 C       -14.4886277898        1.3217180422        4.4118402861
 C       -12.9200197829        1.3569943780        6.4983033473
 C        -7.9355183658        3.2281616910        1.4048908385
 C        -9.6180971096        4.8790173224        0.6114754383
 C        -3.5100020891        2.7902609618       -0.8538959934
 C        -3.7315786961        3.4043390885       -3.4487698645
 C        -6.4066007406       -3.5588626231       -4.7786535921
 C        -8.2110415075       -2.0070156168       -5.5034726974
 H        -9.5288927936       -3.2456903346       -3.5361452922
 H        -9.7817617912       -2.0445923318       -2.4647186663
 H        -9.1015416159       -3.5179064639       -1.9873291109
 H        -4.1775589268       -1.3518784391       -5.1490977044
 H        -4.4006316169       -1.4876421531       -3.3854786962
 H        -4.6072012950        1.1690054135       -4.6739825418
 H        -3.0471022819        0.3944660963       -4.3884361721
 H        -7.0808479366        3.3151008313       -3.3838976568
 H        -6.0032913941        4.7024815871       -2.7647105547
 H        -8.1005667818        5.3244019074       -2.0594303976
 H        -7.0395155015        4.7489092427       -0.7346088226
 H       -11.7099756144        3.5257461277        1.7921876164
 H       -10.6667772556        3.0496923970        2.8090847897
 H       -11.6207190287        0.5360841310        2.2413267462
 H       -13.0844939282        1.6265202019        2.2987640299
 H       -11.3084342180        3.8048056757        5.4480129212
 H       -12.3221359017        3.9002555363        6.9432645616
 H       -11.6960682578        6.2519050449        6.6540455989
 H       -13.3309573836        6.0556227624        6.0929791871
 H       -11.4940175102        7.3001517046        1.2011120304
 H       -11.8123195202        9.0453874789        1.7870266816
 H       -13.6577832116        8.9273888101        0.4947543862
 H       -14.1558939897        7.3032026867        1.1666322577
 H       -13.3177730572       10.2367416046       -3.2072322641
 H       -14.1210890108        9.9205967786       -1.6033385600
 H       -14.8958484172        9.7578663357       -3.1829199693
 H       -13.1175739842        5.0367494218       -2.6266269977
 H       -14.2857806452        5.9384049967       -3.6706143560
 H       -14.8866392017        5.1634351406       -2.3753000473
 H       -15.4502764921        8.3549114605       -0.9289164604
 H       -15.7355128308        6.5801548108       -0.6440917260
 H       -16.1904873185        7.2902082613       -2.1363716021
 H       -13.0373350372        8.6643605812        5.7696524436
 H       -11.7585425117        9.6835585727        5.3663105467
 H       -11.1907805603        8.3452113295        6.2926765575
 H        -9.2757599287        7.4567360520        4.8014530163
 H        -9.8190581734        9.0257122323        4.0477599287
 H        -9.5719426564        7.8081526455        3.0986808147
 H       -14.3419089459        0.3587871478        3.9331002747
 H       -14.8461711068        2.2094789043        3.7734894077
 H       -15.3895684136        1.1144859499        5.0539909955
 H       -11.8511735026        1.6335926183        6.7872263211
 H       -12.8429721320        0.2868467975        6.3899014850
 H       -13.6474586801        1.6006682142        7.2829855164
 H        -8.1908357057        2.6436422510        2.2709408296
 H        -7.1535282729        3.9186315633        1.5784335260
 H        -7.3241763802        2.4881108850        0.8255471558
 H        -9.5693533659        5.2313087910        1.6158705731
 H       -10.5644946374        4.9094858198        0.1410568107
 H        -9.1321777291        5.6159332853       -0.0163591516
 H        -2.6090675097        2.0899098114       -0.6340624701
 H        -4.1721909576        2.4800275221       -0.1006247768
 H        -3.2972841034        3.8208101846       -0.7852975074
 H        -3.2785058284        4.2813616411       -2.8543490426
 H        -4.5879940226        3.6255963197       -4.1467956323
 H        -2.9552225678        2.6804692068       -3.8411673132
 H        -6.5442280892       -3.7940319702       -5.8573412178
 H        -6.5871008237       -4.4871454936       -4.1781387442
 H        -5.3188419607       -3.4904632715       -4.5539263967
 H        -8.6794720282       -0.9745972694       -5.4282608351
 H        -9.0213464407       -2.6974627391       -5.3825712524
 H        -7.8522472436       -1.9922947098       -6.5339779079
 Na       -8.0545398327        0.5047671028       -1.1632663689
