117

 C        -9.0291960336       -2.8804594299       -2.6251458402
 C        -7.6953868145       -2.2405176825       -2.8302232962
 O        -7.1291329137       -1.5861780119       -1.9538102343
 C        -7.0478143097       -2.2778804888       -4.2365989506
 C        -6.2897670803       -0.9895499397       -4.2257653236
 O        -6.7990088484        0.0703276155       -4.3860485795
 C        -4.7010025109       -1.0555598760       -4.1248454776
 C        -4.1941753137        0.3003424241       -4.0054520676
 C        -4.0730845624        0.9249035501       -2.5797244612
 O        -3.5478643549        0.2529672407       -1.7535876666
 C        -4.2556171867        2.4095966769       -2.3290495406
 C        -5.7836314828        2.6355735077       -2.0730311294
 O        -6.2610049045        1.8656186012       -1.2691286905
 C        -6.5232920991        3.8300369799       -2.5712480148
 C        -7.6064966518        4.3598557839       -1.6303175566
 C        -8.6120626601        3.2489261665       -1.0284480929
 O        -9.1216792129        2.4920827492       -1.7839130939
 C        -9.1800107864        3.3525162889        0.3708481463
 C       -10.2329652006        2.3012022079        0.8015007990
 O       -10.0868486431        1.1550575813        0.4199466306
 C       -11.2184058977        2.6660242500        1.9649479783
 C       -12.1553878473        1.5776339264        2.5731378221
 C       -12.0440360570        1.4597763796        4.0727817780
 O       -11.0695434182        0.8830431761        4.5901470678
 C       -13.3082965168        1.8917315172        5.0694106773
 C       -13.3952277410        3.5162048694        5.1935834564
 O       -14.3289514778        4.0836563473        4.7188398981
 C       -12.2784262826        4.1845353882        6.0846143997
 C       -12.1531659699        5.7153882486        5.8631477259
 C       -11.6232430759        6.0881206095        4.5258454922
 O       -11.3290127680        5.3319718338        3.6614375931
 C       -11.5130735093        7.7132084621        4.2407278056
 C       -12.4927525560        8.1272847263        3.1105051340
 O       -13.6618167477        8.3297028692        3.3658050250
 C       -11.9669631098        7.9948621307        1.5309750250
 C       -13.1537258431        8.0826854140        0.6116958876
 C       -13.0750547682        7.0159420381       -0.5116787095
 O       -12.0945616722        6.3449787576       -0.5650771583
 C       -14.1252796113        7.0834694358       -1.7808856952
 C       -13.4938600493        8.1494034112       -2.7737492379
 O       -12.5156268915        7.8963983661       -3.4695201816
 C       -13.8494317914        9.5586722029       -2.6804232537
 C       -13.9800686856        5.7379517518       -2.5265944181
 C       -15.5792656591        7.5091550710       -1.3366786126
 C       -11.8589480516        8.6829670185        5.4214825874
 C       -10.1016313264        7.9829226647        3.7896821455
 C       -14.6709315154        1.4285323813        4.4660891767
 C       -12.8553686341        1.3235023242        6.4646590687
 C        -8.0686420893        3.2853893391        1.5865860665
 C        -9.7205203006        4.8268998394        0.5437724727
 C        -3.5014365034        2.7839031974       -1.0311858650
 C        -3.5637046919        3.2360267394       -3.5126502051
 C        -6.2686335651       -3.5383216385       -4.5963842371
 C        -8.2087928854       -1.9929434525       -5.2454197634
 H        -9.5489607226       -3.4166297054       -3.3389794879
 H        -9.8356542766       -2.2837419271       -2.2611375906
 H        -8.8841747160       -3.6011800174       -1.8538433223
 H        -4.3089025343       -1.4537837774       -5.0645808586
 H        -4.3322964266       -1.6391473751       -3.2405590273
 H        -4.9359932013        0.8843047275       -4.5876833258
 H        -3.2419931820        0.4506646868       -4.4254903307
 H        -6.9309770827        3.5307309156       -3.5501320362
 H        -5.8574052182        4.7380808471       -2.6761419151
 H        -8.2877172072        5.0129396430       -2.2607361131
 H        -7.0839199361        5.0230157937       -0.9214372466
 H       -11.6883424357        3.6101933767        1.8195275042
 H       -10.7197491842        3.0511481487        2.9350274052
 H       -11.7819633238        0.6599914227        2.1945292692
 H       -13.2882012762        1.8306502009        2.3038796008
 H       -11.3616784409        3.7221609222        5.8553223296
 H       -12.6263200959        4.0472635975        7.1605808704
 H       -11.5333817614        6.2238120685        6.6187523145
 H       -13.1661466182        6.0634494366        6.1352139928
 H       -11.6786764662        7.0581724692        1.1232591355
 H       -11.2510944492        8.8479047767        1.3005271096
 H       -13.2048223118        9.1210546834        0.3551450233
 H       -14.1086035291        7.7575596320        1.0369705273
 H       -13.1697592731       10.0441275706       -3.3169859181
 H       -13.8808175878        9.9635307321       -1.6414219720
 H       -14.7958924307        9.7241101670       -3.1262375721
 H       -13.0322168799        5.3768515471       -2.3430643788
 H       -14.1052088362        5.8689349597       -3.6128974525
 H       -14.8235271677        5.0131215657       -2.3504266975
 H       -15.4423685091        8.5765277899       -1.0148231765
 H       -16.0191911091        6.8141788250       -0.5538719877
 H       -16.2808176143        7.5635277118       -2.1654977984
 H       -12.9038306974        8.8974866917        5.6873466800
 H       -11.4301675248        9.7863738754        5.1852677361
 H       -11.1999709499        8.3741209338        6.2324540326
 H        -9.3387034707        7.5887701138        4.5012308934
 H       -10.0288265585        9.0146871353        3.4416742221
 H        -9.8599926139        7.5100305329        2.7745893506
 H       -14.6515979410        0.3550051050        4.2103031079
 H       -15.0405755286        2.0782300673        3.8265347740
 H       -15.4063591562        1.3795651419        5.2715907779
 H       -11.8918480775        1.0706092553        6.5101781164
 H       -13.4226983407        0.3111340593        6.7154050157
 H       -13.0949809787        2.0643472454        7.2300542316
 H        -8.6704617828        3.0261709304        2.4330762926
 H        -7.4939024649        4.1661522709        1.5639988103
 H        -7.2818365183        2.6066144552        1.5708813963
 H       -10.1223301188        4.9217202837        1.4871921185
 H       -10.3864601610        5.0968546732       -0.2857486110
 H        -8.9680993517        5.6903410401        0.4532905140
 H        -2.5953763938        2.1753145560       -1.0487441857
 H        -4.0111696632        2.3408014504       -0.2469327781
 H        -3.3189799407        3.7977195408       -0.9722984033
 H        -2.8086614315        3.8456082362       -3.0330804570
 H        -4.5590495115        3.7920800066       -3.7977592162
 H        -3.2257397073        2.5277307054       -4.3249699393
 H        -5.8840343107       -3.5598993795       -5.6775708432
 H        -6.7362042164       -4.5482104880       -4.3859727025
 H        -5.4620946579       -3.6087445864       -3.8686639802
 H        -9.1520809406       -1.6396853848       -4.9006633014
 H        -8.4573917975       -2.9047814580       -5.8835792326
 H        -7.8661975810       -1.1122981581       -5.9068458988
 Na       -8.0530900895        0.5076734698       -1.1585255845
