117

 C        -9.0551722230       -3.1445976954       -2.3499324197
 C        -7.8041371653       -2.3013133158       -2.5882988590
 O        -7.3663728608       -1.6206455887       -1.6849551535
 C        -7.1049337064       -2.2854266850       -4.0800471070
 C        -6.3124142153       -1.0034739071       -4.2399067493
 O        -6.7246475553        0.0858521610       -4.5130507962
 C        -4.7443512880       -1.0809057783       -4.0021026226
 C        -4.0922677126        0.3039498842       -4.0788755477
 C        -3.8691968702        0.8392546283       -2.6004986085
 O        -3.5071025296        0.1256068814       -1.7207348813
 C        -4.1298991318        2.4097628935       -2.3528363207
 C        -5.6761503560        2.6194440557       -2.1506864567
 O        -6.2638021322        1.8099217874       -1.4504220240
 C        -6.5102542255        3.8652176738       -2.7235935007
 C        -7.6326726209        4.2923803517       -1.5744677702
 C        -8.6045539529        3.2654424140       -1.1698549873
 O        -9.0824149875        2.3508173685       -1.8007832676
 C        -9.2034456675        3.4148876939        0.6032598490
 C       -10.1286852043        2.2641496915        0.9607988571
 O       -10.0229149860        1.1455502077        0.4975971055
 C       -11.2051069790        2.6984161296        1.8866626913
 C       -12.2528172069        1.7032073169        2.4091584969
 C       -12.1018496251        1.4633760182        4.0276815573
 O       -11.0201420057        1.1223494164        4.4028299475
 C       -13.2451737118        1.9290849457        5.0427493738
 C       -13.2712262051        3.5024054441        5.1770761047
 O       -14.1709929722        4.1006293699        4.6487792580
 C       -12.3627814254        4.1903455916        6.1573574224
 C       -12.1557336506        5.6686404565        5.9025584182
 C       -11.6238454832        6.1542492780        4.5144256082
 O       -11.2876201438        5.2916136157        3.7227309692
 C       -11.4753478071        7.6634550633        4.1380682582
 C       -12.5772630545        7.9707597845        2.9805819154
 O       -13.6346247174        8.4931320362        3.1436386395
 C       -11.9844921421        7.8935303855        1.5919195074
 C       -13.1373710197        8.2052848722        0.5148857902
 C       -13.0608002717        7.2159237854       -0.6194440120
 O       -12.0857313828        6.4697457426       -0.6801322199
 C       -14.1279832498        7.2207813742       -1.6710841143
 C       -13.4129706306        8.2478027025       -2.7174923683
 O       -12.5371528764        7.7681498566       -3.4256464928
 C       -13.8852937924        9.7623870729       -2.6420891634
 C       -14.1113049177        5.7422918892       -2.3369105796
 C       -15.5473794806        7.5830097811       -1.4003209449
 C       -11.7641778083        8.5573220382        5.3535273919
 C       -10.0423951474        7.9335989054        3.5166972286
 C       -14.6219291001        1.4781166081        4.6373153732
 C       -13.0576377814        1.2616698614        6.4350126669
 C        -8.0464539368        3.3303024736        1.6988281564
 C        -9.9016915382        4.9107083920        0.5029966329
 C        -3.4674699778        2.8264186573       -1.0954411673
 C        -3.5006983882        3.2471375671       -3.7045599048
 C        -6.2440377234       -3.5369791730       -4.3317184885
 C        -8.3071382968       -2.1449038662       -5.1915219583
 H        -9.5515678953       -3.7262044780       -3.0973798714
 H        -9.8794447091       -2.4910695593       -2.1388351315
 H        -9.0449201220       -3.7912802656       -1.4646371375
 H        -4.2670194389       -1.7798002801       -4.7038534263
 H        -4.6336759108       -1.4155101137       -2.8883327217
 H        -4.9227434587        0.9557289833       -4.4898099875
 H        -3.1882628388        0.5001150702       -4.7076726637
 H        -7.0143230629        3.5301074219       -3.5933504525
 H        -5.9315363982        4.7668581892       -2.9036964543
 H        -8.3450583998        5.0413261247       -1.9378357085
 H        -7.0951488166        4.7260058216       -0.7185337633
 H       -11.7240794249        3.5194296446        1.3296157083
 H       -11.0102931473        3.3835009761        2.7779989658
 H       -11.9481969061        0.7282681546        1.9120105333
 H       -13.1968357189        2.1200051343        2.0785099799
 H       -11.3569184533        3.6854540191        6.0480860201
 H       -12.8642084408        4.0327388869        7.1918348955
 H       -11.4563506141        6.0471741692        6.6442192939
 H       -13.0794650451        6.1117349609        6.2408356876
 H       -11.7764813200        6.9182424569        1.3454919678
 H       -11.1123407803        8.6551727230        1.3336093200
 H       -12.6602405279        9.1214395174        0.1884973931
 H       -14.1534051247        8.3779830175        0.7430268648
 H       -13.4374734625       10.5050138362       -3.3878362802
 H       -13.9003870355       10.1705671791       -1.6795771530
 H       -14.9505922350        9.6170553039       -2.9862074554
 H       -12.9932648692        5.4539580283       -2.2950498952
 H       -14.4062859448        5.6265956537       -3.3489085136
 H       -14.8007299650        5.0576300058       -1.8447755149
 H       -15.6469803360        8.6023645444       -0.9892092386
 H       -15.9956568447        6.7792994250       -0.7282071315
 H       -16.0973805282        7.6282279017       -2.3489350375
 H       -12.8309014876        8.5363161063        5.4797801035
 H       -11.5551975061        9.6377089341        5.1897857348
 H       -11.2353391608        8.2821593025        6.2814639475
 H        -9.4001504390        7.8802092878        4.3836717597
 H        -9.9008241722        8.7941398527        2.7392593165
 H        -9.6213956149        7.0919189543        2.8855819460
 H       -14.6236498317        0.4475159132        4.7140771275
 H       -15.1177862413        1.9662321248        3.7680577110
 H       -15.2068908321        1.6801395106        5.4439099291
 H       -12.1979246480        0.5898449404        6.6075158315
 H       -13.8988784164        0.6404892378        6.5931846242
 H       -13.0207370521        2.0883611512        7.1883578765
 H        -8.5742338272        3.4845013731        2.6237996995
 H        -7.1989018955        3.9222998167        1.3430533617
 H        -7.5880145313        2.3815782602        1.8353134313
 H       -10.7451579691        5.0329800218        1.2684426143
 H       -10.2243877405        5.0918259065       -0.5434601577
 H        -9.3191025571        5.7855462790        0.6882466458
 H        -2.4910755438        2.6621169461       -1.2546238009
 H        -3.7413600529        2.0990907764       -0.3229763957
 H        -3.5705475821        3.9077651257       -0.8835925802
 H        -2.5085489428        3.4405308666       -3.3816052466
 H        -4.1131276072        4.0343195996       -3.8559700824
 H        -3.5419009258        2.6389320395       -4.5757405448
 H        -5.4145593965       -3.4100157544       -5.0257666070
 H        -6.8222740104       -4.3357982092       -4.7618606786
 H        -5.9206801700       -4.0189300556       -3.3899720721
 H        -9.3153950387       -2.4938779966       -5.0044472815
 H        -8.0096689362       -2.6826663030       -6.1419526835
 H        -8.4380589828       -1.0615128244       -5.3827227641
 Na       -8.1748237430        0.4538813876       -1.0989193019
