117

 C        -8.8969665111       -3.5495946635       -2.0841847524
 C        -7.9769880772       -2.3697839052       -2.3675314184
 O        -7.7618328709       -1.5311452913       -1.5079616970
 C        -7.3638221027       -2.3828713851       -3.8047782167
 C        -6.3800765182       -0.9793918236       -4.0178681734
 O        -6.8396112766       -0.0653498829       -4.6457980586
 C        -4.8830016799       -1.1676773133       -3.7883568114
 C        -3.9873116665        0.1280172955       -4.0908488513
 C        -3.8072708282        0.8695511028       -2.6949342445
 O        -3.4208588682        0.3543586507       -1.6753113661
 C        -4.1021076669        2.4447652088       -2.5166224355
 C        -5.6866579135        2.4388876864       -2.1983623323
 O        -6.0777302804        1.4002726425       -1.7033331774
 C        -6.5175363889        3.6134299562       -2.5870355487
 C        -7.3484850111        4.2374953097       -1.5285632438
 C        -8.5832261898        3.1993643138       -0.9296485755
 O        -8.9908095164        2.3985718957       -1.7416835946
 C        -9.1926421514        3.5117810357        0.5093912228
 C       -10.2150936358        2.2974634714        0.9146692647
 O        -9.8757616476        1.0980692110        0.8671320116
 C       -11.4629904694        2.7791463436        1.5789930515
 C       -12.4217068786        1.7119709133        2.3681319599
 C       -12.1612449589        1.6837118188        3.8969764074
 O       -11.0201956028        1.5596594737        4.3854944291
 C       -13.2413103287        1.9613304039        4.9892207958
 C       -13.2479544497        3.5439623478        5.1629939023
 O       -13.8029662797        4.1906049889        4.3321872717
 C       -12.2100360924        4.2086160710        6.0712989698
 C       -12.2226482000        5.6893615453        5.7294175871
 C       -11.6440026597        6.0200283771        4.4363617945
 O       -11.1704848710        5.1579638561        3.7225269342
 C       -11.4688044610        7.6073963016        4.1812403657
 C       -12.4611986593        8.1112110342        2.9493418536
 O       -13.5255308698        8.5264627222        3.3181306429
 C       -12.0495288373        7.7946930843        1.5120291901
 C       -12.9996302658        8.4013806654        0.3150397469
 C       -13.0642595670        7.2847967473       -0.7712616961
 O       -12.0773095895        6.5709249738       -0.8510032204
 C       -14.2283379210        7.2967316446       -1.7954073553
 C       -13.4897759072        8.2820386807       -2.9756679495
 O       -12.5543188107        7.9115904824       -3.6001062095
 C       -13.9092200335        9.8020321696       -2.8625758688
 C       -14.3491938607        5.8279797379       -2.3398242205
 C       -15.6207272634        7.9017918241       -1.2336394737
 C       -11.6696545379        8.6022650924        5.2646760185
 C        -9.9343549070        7.6699787502        3.6695167545
 C       -14.6439777953        1.5531291095        4.4343194449
 C       -12.8378598992        1.1860893136        6.2823464592
 C        -7.8957102299        3.4902552251        1.4832677942
 C        -9.8174552008        4.9538155446        0.3485493551
 C        -3.3291258874        3.0260445790       -1.2009564042
 C        -3.6212731691        3.3423245447       -3.6962163490
 C        -6.5281084407       -3.7506535667       -3.6043820292
 C        -8.4016233928       -2.3724303169       -4.9333077304
 H        -8.7279299251       -4.3986417127       -2.7724657464
 H       -10.0054722924       -3.5184962591       -2.2928047025
 H        -8.9490337559       -3.9246340966       -1.0447594755
 H        -4.6685333308       -1.8945062510       -4.6070770493
 H        -4.7026278038       -1.4645209398       -2.7873309722
 H        -4.2171364290        0.8067293950       -4.9372850846
 H        -2.9492013884       -0.2435397225       -4.2469836106
 H        -7.2760289632        3.2578392379       -3.3116958145
 H        -5.8963441013        4.3814756970       -3.0454149569
 H        -7.8049274670        5.1491793288       -1.9218510216
 H        -6.6060510609        4.4607689165       -0.7764808337
 H       -12.0942923118        3.3500619188        0.9081246783
 H       -11.3316925140        3.5782329561        2.2595428243
 H       -12.2030491215        0.8135322080        1.9174545966
 H       -13.4483757701        2.1306773702        2.1185462538
 H       -11.2409021041        3.8292765681        5.7816088912
 H       -12.4718618330        3.9641062124        7.0781599353
 H       -11.6012049188        6.1975262384        6.4906174545
 H       -13.1979459445        6.2311442497        5.8791175423
 H       -12.0251249372        6.6353205202        1.4733830545
 H       -11.1161315835        8.2393305023        1.5197025586
 H       -12.6247273755        9.4040456217       -0.0186111088
 H       -13.9693427801        8.5006633704        0.8944283712
 H       -13.3296124612       10.4935506550       -3.4203603152
 H       -13.5729407639       10.0280409324       -1.7556978347
 H       -14.9606795127       10.0532102978       -2.9708548377
 H       -13.6763094383        5.5628254480       -3.0476487946
 H       -15.3659670397        5.5614197934       -2.7382248618
 H       -14.3268101761        5.1952779043       -1.4373992756
 H       -15.2942748980        8.8185535324       -0.7657552547
 H       -15.9437759676        7.3547153537       -0.3868520681
 H       -16.3568845708        8.2196500914       -1.9572568037
 H       -12.6504928413        8.3939770534        5.6885980581
 H       -11.5920091953        9.6530248773        4.8083862688
 H       -10.9837421498        8.5670882022        6.0677328631
 H        -9.1818664085        7.3525933265        4.3763275316
 H        -9.7572564944        8.5959970932        3.2925327116
 H        -9.7934021603        7.0505563040        2.8271452996
 H       -14.8201054646        0.4102013538        4.6417459643
 H       -14.6197127701        1.8503982736        3.4496661274
 H       -15.5614412377        2.0932611267        4.9401774503
 H       -12.0931537114        0.4710988206        6.0790365462
 H       -13.7329958309        0.4625880504        6.5469547538
 H       -12.3373900096        1.8251395512        6.9745619319
 H        -8.1535066449        4.2200255678        2.3029614652
 H        -6.9322751651        3.5001162798        0.9412063805
 H        -7.7514556358        2.4922453022        2.0711791526
 H        -9.8999103764        5.3458667973        1.2782678312
 H       -10.6439119392        5.2073544607       -0.2769281193
 H        -8.9934431655        5.5990582805       -0.0764901468
 H        -2.2920507598        3.5190496974       -1.4368259771
 H        -3.2057210126        2.1225282592       -0.5391315132
 H        -3.8902235472        3.8832919740       -0.7819888579
 H        -2.8983200652        2.6498209963       -3.9715103584
 H        -3.3612703847        4.3717673072       -3.2564652162
 H        -4.4201343500        3.6242225025       -4.4029451315
 H        -5.5129715975       -3.6931339692       -4.0212782566
 H        -6.9615171450       -4.6025741372       -4.1083353251
 H        -6.2744869581       -3.9989359380       -2.5995796427
 H        -8.4722524066       -3.3537544077       -5.3365174880
 H        -8.1425067588       -1.6879630173       -5.7119657834
 H        -9.4074077067       -2.2243161418       -4.6028207116
 Na       -8.4159678777        0.3705975309       -0.7976091666
