117

 C       -10.8400115953        8.7935019929       -1.8474377711
 C        -9.5893986193        9.7369253378       -2.1595589585
 O        -9.4628397481       10.7923145777       -1.4617223915
 C        -8.6695351116        9.4842650576       -3.3962967662
 C        -7.7137668256        8.2562187668       -3.2838311421
 O        -7.4442341056        7.4341910449       -4.1622049237
 C        -7.0109804108        8.1988490305       -1.9486042635
 C        -5.8615086020        7.0614907081       -1.8878863631
 C        -6.4874080456        5.6801226667       -1.5530868144
 O        -7.6171979585        5.5907515227       -1.1068276466
 C        -5.5862906448        4.3531713942       -1.7266547676
 C        -5.5511504685        4.0000341858       -0.2251178130
 O        -4.6823282848        4.4309168676        0.5169896612
 C        -6.8371509796        3.1593582353        0.1832247751
 C        -6.7307132474        3.0740534214        1.6612866784
 C        -7.2312431702        1.8246940011        2.3511780771
 O        -7.9975824831        0.9631351070        1.9280172254
 C        -6.7434014040        1.6354287101        3.9156811450
 C        -7.6156168836        2.6466608657        4.8340940854
 O        -7.0395180460        3.6601562404        5.1200602469
 C        -9.1274121569        2.3320994802        5.1247296789
 C       -10.1316073059        3.5435316220        4.9006843748
 C       -10.4564547416        3.7848202483        3.4065364670
 O        -9.6420339325        3.5689575880        2.5438839250
 C       -11.8519125688        4.4484154402        2.9924585300
 C       -12.7123450280        3.2154810605        2.3573123897
 O       -12.2910760743        2.2181500868        1.8451589238
 C       -14.2915805928        3.3491242301        2.3694431173
 C       -14.9160417734        2.6612942004        1.1430864871
 C       -14.4148604768        3.4858060589       -0.1371356244
 O       -13.8556546498        4.5259019004       -0.0009725696
 C       -14.9263069590        3.0754356074       -1.4887008905
 C       -14.2072670667        1.8627261797       -2.0773499226
 O       -14.6765239612        0.7426412320       -1.9674442984
 C       -12.8934985994        2.0841205825       -2.7521064927
 C       -11.9961167650        0.8192763073       -2.9617002891
 C       -10.6971017533        0.6718867310       -2.0999231704
 O       -10.3069723700        1.6505278286       -1.5248245114
 C        -9.9285094490       -0.6890220031       -1.9170871931
 C       -10.6697535882       -1.2823975827       -0.6460246773
 O       -10.7055160614       -0.6064566451        0.3966001270
 C       -11.4722699502       -2.5665499040       -0.8057716558
 C        -9.8750425828       -1.7289285524       -3.1324538244
 C        -8.4374827443       -0.4180688195       -1.5462607961
 C       -16.3976467691        2.6663069023       -1.5480500022
 C       -14.7782427746        4.3090499790       -2.4586227971
 C       -12.5650019517        5.0770391211        4.2169091654
 C       -11.7435669508        5.3950511402        1.7771933138
 C        -6.9006430573        0.0828168073        4.3300270418
 C        -5.2642806891        1.9371184974        4.1915916964
 C        -6.3411129870        3.3072714928       -2.5503744440
 C        -4.0968039335        4.5935519865       -2.1837403097
 C        -9.6321518635        9.1578486922       -4.6178439987
 C        -7.7420728968       10.7476058994       -3.5548379587
 H       -10.7982537288        7.8095081289       -1.4541027726
 H       -11.4799488946        8.7690129144       -2.7803971661
 H       -11.2870926548        9.2613786693       -0.9611380172
 H        -7.7139107965        8.1394917800       -1.0535644492
 H        -6.5440347446        9.1645223265       -1.7672440738
 H        -5.2186443957        7.3430343162       -1.0683931624
 H        -5.3208826607        7.1405407580       -2.7975459006
 H        -6.8294581771        2.1144736237       -0.1807021064
 H        -7.7411347445        3.5970668742       -0.2238210234
 H        -7.4854126433        3.8297159308        2.0425864265
 H        -5.7417834199        3.3037259125        1.9391769580
 H        -9.1573790407        2.1211288360        6.1917641259
 H        -9.6277951869        1.5201276397        4.6577370988
 H        -9.6271119635        4.4455114413        5.2196441189
 H       -11.0930984633        3.3830647197        5.4524105739
 H       -14.7491869812        4.3342602157        2.3638794274
 H       -14.6985725876        2.8275322041        3.2938961616
 H       -15.9616549399        2.6962216139        1.2437264162
 H       -14.6925565457        1.6192843253        1.1454345772
 H       -12.2773569762        2.8836186339       -2.3509976298
 H       -13.1879983759        2.4501999729       -3.7696365541
 H       -11.8165764991        0.7057568682       -4.0031897116
 H       -12.5661827132       -0.0832928282       -2.7823606405
 H       -11.6599977269       -2.9625539759        0.1982526178
 H       -10.9380479177       -3.2821483221       -1.3936211383
 H       -12.3714323130       -2.4419675850       -1.3828450951
 H        -9.2310321649       -1.0839095654       -3.7972429702
 H       -10.7397021961       -1.9271254982       -3.6942156931
 H        -9.2487994766       -2.4967362851       -2.8516966998
 H        -8.5051278377        0.2138508346       -0.7209416682
 H        -7.8032985337        0.1093987360       -2.2874452576
 H        -7.9136846124       -1.3029733513       -1.1830889603
 H       -16.4934384208        1.7866218276       -0.9575712125
 H       -16.6250712794        2.5359408978       -2.6498765461
 H       -17.0942280154        3.5054273593       -1.2676228119
 H       -14.5109174256        4.0461727725       -3.5564483688
 H       -14.0458414457        4.9981204212       -2.1587796153
 H       -15.7679280873        4.8533006264       -2.4581786913
 H       -11.9158981853        5.9096656339        4.5603353982
 H       -12.6291780065        4.2698039015        4.9611498306
 H       -13.5114697907        5.5141836832        3.9314485138
 H       -10.8794841462        6.0630073711        1.8257243616
 H       -12.6093579741        5.9851051853        1.7533223653
 H       -11.5255686615        4.8731978156        0.8721985686
 H        -6.3107383233        0.0039873603        5.2197206723
 H        -6.4479088411       -0.4882584568        3.6008292256
 H        -7.8765681573       -0.4358824881        4.4669291831
 H        -4.6031264282        1.7314656567        3.4201087770
 H        -4.9083076786        1.5369594774        5.0842163025
 H        -5.0566718784        3.0130547910        4.3724012671
 H        -7.4086758788        3.4662784794       -2.4116045555
 H        -6.1254196557        2.3120956556       -2.3398053679
 H        -6.2728219777        3.3229270445       -3.6675087581
 H        -4.0052032369        4.9767110006       -3.2446204007
 H        -3.6090410321        3.6234141057       -2.0800705557
 H        -3.6933516839        5.3514577250       -1.4978031574
 H        -9.0624457205        8.8779602230       -5.4798992226
 H       -10.2680708253        9.9979932062       -4.7120105706
 H       -10.1427251054        8.2515887239       -4.3588204426
 H        -7.4714966186       11.1881676164       -2.6068517183
 H        -8.2457634552       11.5990250083       -4.0054066541
 H        -6.8100806377       10.4801196402       -4.0184443792
 Na      -10.0622833205        1.6061888754        0.9932456148
