117

 C        -8.8995704149       -3.6545648511       -1.3105873048
 C        -8.1679802204       -2.5454912565       -2.0342670287
 O        -8.3739900172       -1.4271481007       -1.5908442696
 C        -7.3549235068       -2.8681704472       -3.2900523869
 C        -6.6396806741       -1.5521499120       -3.5607351498
 O        -7.1572065600       -0.5935729766       -4.0417893634
 C        -5.0712106870       -1.5606298821       -3.0744397492
 C        -4.3411346687       -0.2524122772       -3.7581146843
 C        -3.7843161551        0.6680403256       -2.6006722511
 O        -2.8446610803        0.4247428838       -1.9320165150
 C        -4.4255150383        2.1735540742       -2.6139178614
 C        -5.9191993550        2.1528964350       -2.2321391452
 O        -6.2389913546        1.3229026406       -1.4069060915
 C        -6.8189734724        3.3241471486       -2.6596417687
 C        -7.4207342496        4.0588812242       -1.4180850758
 C        -8.6076348187        3.2579919404       -0.7654146741
 O        -9.1314337234        2.4326770503       -1.4414425832
 C        -9.0143391414        3.6618384030        0.6580707255
 C       -10.1456087538        2.5759581009        1.0050574059
 O        -9.7337189187        1.4401001038        0.9599220818
 C       -11.5714892029        3.0467949270        1.2096077478
 C       -12.3832938236        1.8646348260        1.9841136349
 C       -11.9224974506        1.9641537176        3.4827389404
 O       -10.7179412091        2.1080941549        3.7739245076
 C       -13.0892099190        2.0110948074        4.5723550989
 C       -13.2226353490        3.5812247583        4.6744005571
 O       -13.8839943553        4.2106671478        3.9135545262
 C       -12.4253596762        4.3073498827        5.8020563133
 C       -12.1530943982        5.7639695676        5.5777100721
 C       -11.3238098323        6.1858126029        4.4310615085
 O       -11.0831241635        5.4653993818        3.5135519798
 C       -10.9826320523        7.6709745430        4.1078176194
 C       -12.1670746819        8.0951550690        2.9581552883
 O       -13.2187955426        8.5175376595        3.3914168276
 C       -11.7980156537        7.7007858889        1.4572983788
 C       -13.1072396570        7.9520647817        0.6002973071
 C       -12.9857632080        7.3405984265       -0.8013690051
 O       -12.3049731042        6.4002853517       -1.1627805633
 C       -14.1219730012        7.7291436091       -1.8900576179
 C       -13.6501280916        8.5493966377       -3.2091770119
 O       -13.1040116829        8.0190921136       -4.1846215273
 C       -14.1075462481        9.9674985391       -3.3840945690
 C       -14.7517553086        6.4021723844       -2.3594492221
 C       -15.2588734802        8.6259914393       -1.1979798267
 C       -11.3879970658        8.5721564708        5.3426966764
 C        -9.5404740803        7.9801632683        3.7856296185
 C       -14.3781765803        1.2488603968        3.8670373105
 C       -12.5882171977        1.3329558675        5.8398678723
 C        -7.8567453914        3.5800662784        1.6698322808
 C        -9.5896430679        5.1591828163        0.6689450379
 C        -3.7109240548        3.0832794980       -1.5172532306
 C        -3.9803209056        2.7984269646       -3.9870012184
 C        -6.4140716190       -4.1475686810       -3.0998303404
 C        -8.4517048751       -3.0019170406       -4.4509827819
 H        -8.3308962049       -4.5722320395       -1.3214901776
 H        -9.9015725391       -4.0807742306       -1.5744794098
 H        -9.1604985001       -3.3087060016       -0.2851683966
 H        -4.6034501607       -2.5428001500       -3.3380727636
 H        -5.2781373055       -1.3151668954       -2.0348802435
 H        -4.9668926801        0.4508518740       -4.3791311793
 H        -3.5156945215       -0.3961886960       -4.5003702147
 H        -7.6947393656        2.8567656408       -3.0574398347
 H        -6.4798639799        4.0885393835       -3.3444725673
 H        -7.7193244131        5.0422652254       -1.7490575442
 H        -6.6245052572        4.1909085460       -0.7143697254
 H       -12.0124198513        3.2571052970        0.2251346485
 H       -11.7760989812        3.9925223083        1.7217247452
 H       -12.0522178191        1.0272517337        1.4667276576
 H       -13.5137952063        2.0283355700        1.7528343316
 H       -11.5674081338        3.6584079326        5.8950596630
 H       -13.0406748929        4.2754110824        6.7708890452
 H       -11.8768758395        6.0821611388        6.5612157458
 H       -13.1064497369        6.3068249414        5.3967234274
 H       -11.3874355805        6.6601428458        1.4598334083
 H       -11.1426762146        8.3833992411        0.8750554953
 H       -13.5808142021        8.9313513379        0.6937609468
 H       -13.7829171294        7.1671402671        0.9684318564
 H       -13.5239158542       10.5083805477       -4.1569226985
 H       -13.7646903979       10.5859256550       -2.5025186634
 H       -15.2092955318       10.0938398913       -3.5210594718
 H       -14.1845950781        5.6647398085       -2.8741671064
 H       -15.5740280253        6.7284902831       -3.0465192301
 H       -15.2159529944        5.8836188283       -1.4587965802
 H       -14.9290514795        9.5057648373       -0.6396805847
 H       -15.7187703800        8.0414441336       -0.4060765706
 H       -15.9477566925        8.9549303185       -1.9386624798
 H       -12.3605975572        8.5749268224        5.6605953387
 H       -10.9024623738        9.5715273967        5.1096780987
 H       -10.9213229302        8.2112395438        6.1828051844
 H        -8.9355508652        7.9223225985        4.6955782649
 H        -9.3249791118        8.9833352812        3.4249560185
 H        -9.1674580228        7.1835220642        3.1051592982
 H       -13.9247488559        0.3771688306        3.2785029543
 H       -14.8247597065        1.8179169258        3.0858527740
 H       -15.1290085054        1.0662579424        4.6843892849
 H       -13.1310914612        0.5083833843        6.2590222681
 H       -12.7327744975        2.2035767467        6.5915470431
 H       -11.5401830298        0.9543734358        5.6819690680
 H        -8.1408557196        3.1962107703        2.7258334582
 H        -7.3161513409        4.5756097572        1.8673068398
 H        -7.1692095342        2.8466579505        1.1821840238
 H       -10.2495492872        5.3920456401        1.4607699031
 H       -10.0278618146        5.5157586015       -0.2678564952
 H        -8.6398076785        5.7967151421        0.8455325674
 H        -2.6629406590        3.0322863930       -1.5544532181
 H        -4.2455370103        2.9934697643       -0.4774533931
 H        -3.9663072990        4.1767727380       -1.8019896363
 H        -2.9193462324        2.9624249871       -3.8350730991
 H        -4.4531282044        3.7579133694       -3.9552481014
 H        -4.1254363734        2.1274830387       -4.8169916606
 H        -5.6502374111       -4.3968885052       -3.8103394698
 H        -6.9932175076       -5.0160827423       -2.9474734040
 H        -5.8248133797       -3.9741882783       -2.2626171054
 H        -8.4270027235       -2.1346461134       -5.0039031843
 H        -9.4842077485       -3.2124928646       -4.0890660706
 H        -8.1624352873       -3.6965840475       -5.2302414052
 Na       -8.0255589345        0.4658580010       -0.3020726303
