117

 C        -8.8149435081       -3.7690444466       -1.0649076781
 C        -8.2445711646       -2.6162373696       -1.9281501112
 O        -8.2710798545       -1.4061286258       -1.6253168827
 C        -7.4789997058       -3.0057375659       -3.2000827695
 C        -6.5995235382       -1.7261931603       -3.4849686019
 O        -7.1984955520       -0.7610333600       -3.8582223660
 C        -5.1585800971       -1.6278613959       -2.8983223653
 C        -4.3688899972       -0.4236609198       -3.5946814215
 C        -3.7316171708        0.6679705920       -2.6978433133
 O        -2.7673265716        0.5062654122       -1.9560437823
 C        -4.3746956318        2.1769576477       -2.7432264150
 C        -5.9299712079        2.1216768850       -2.2649899588
 O        -6.1584096824        1.3767279042       -1.2858641791
 C        -6.8884142882        3.3241171415       -2.6431462224
 C        -7.4479914886        4.0831912780       -1.5307455469
 C        -8.5658226179        3.3826955777       -0.8144580641
 O        -9.1814605271        2.5249462505       -1.4201232040
 C        -8.8845634044        3.6596145037        0.7211210938
 C       -10.0981648826        2.6674865597        0.9328596662
 O        -9.7829086773        1.5182237898        0.9698297596
 C       -11.5070728997        3.0354547779        0.9947091487
 C       -12.3065125575        2.0302325265        1.8525921016
 C       -11.8775830657        1.9882324363        3.2580485609
 O       -10.7684052367        2.0694414241        3.7130714452
 C       -13.0226253991        1.9806763149        4.4108721223
 C       -13.3081906735        3.6158684726        4.6149022425
 O       -14.0065345842        4.2734070549        3.8579456459
 C       -12.4066466973        4.2992782327        5.7730976889
 C       -12.2566988420        5.8618526603        5.4642317977
 C       -11.2866312166        6.2337038081        4.2201082886
 O       -10.8915338712        5.3743705137        3.4284884359
 C       -10.9532342350        7.7417007802        4.0971575099
 C       -12.1070683345        8.0518976656        3.0326773055
 O       -13.1353001270        8.6074717148        3.3581095985
 C       -11.9160677661        7.7565804515        1.5330178300
 C       -13.1347236747        7.8666879546        0.5429908702
 C       -13.0213414537        7.2818540337       -0.9072424895
 O       -12.2037947402        6.4750896805       -1.2117051735
 C       -14.1940276035        7.9197046460       -1.8762257001
 C       -13.6769689376        8.5764210971       -3.2381466306
 O       -13.1075017960        7.8903822268       -4.0925281843
 C       -14.0632475713       10.0457804487       -3.3076067331
 C       -14.8632315018        6.5924685620       -2.3141037135
 C       -15.2645060662        8.7956140312       -1.1550873947
 C       -11.3645740357        8.7536919411        5.3175883470
 C        -9.5199754726        7.9535777521        3.6873195285
 C       -14.2918193030        1.1999142157        4.0543717492
 C       -12.5462261718        1.2917717167        5.7024455094
 C        -7.7249261875        3.5780783868        1.6880749596
 C        -9.5690519443        5.1705076184        0.8358464314
 C        -3.7887553935        2.9198378070       -1.5723962199
 C        -4.0564793801        2.8943759065       -4.0978707024
 C        -6.7224860051       -4.2213604664       -2.7798678708
 C        -8.5165682685       -3.1923864348       -4.4367729574
 H        -8.0450887687       -4.5770028017       -1.0098776660
 H        -9.6339092864       -4.4015729252       -1.4886794435
 H        -9.3206231945       -3.5945428511       -0.0847629977
 H        -4.7439685632       -2.5283642845       -3.2156282255
 H        -5.3298773584       -1.4680636111       -1.8114494365
 H        -4.7597641813        0.1155629600       -4.4684639524
 H        -3.4929375524       -0.7830415233       -4.0831490627
 H        -7.7632732196        2.7537397903       -2.9789557682
 H        -6.6529617951        4.0922040508       -3.4319152416
 H        -7.8832929073        5.0080492585       -1.9497403797
 H        -6.6626502996        4.4041560414       -0.8612623844
 H       -11.9082747132        3.0668830206        0.0489596164
 H       -11.8230636983        3.9954371076        1.3943493953
 H       -12.1566049803        1.0554563082        1.3448641304
 H       -13.3452971313        2.2949895641        1.7285950689
 H       -11.5548264297        3.7079357010        5.7415735369
 H       -12.9769458790        4.0893149853        6.6952312961
 H       -11.8676502850        6.2815574020        6.4237071759
 H       -13.2468008818        6.3461848084        5.3294655736
 H       -11.4237059750        6.8243601854        1.4384791592
 H       -11.3055654701        8.5103168730        0.8380445057
 H       -13.3436465360        8.9449387661        0.2808184290
 H       -14.0342966731        7.4243753141        0.9835306522
 H       -13.6431864726       10.6742652625       -4.1642718481
 H       -13.9529494054       10.6414103643       -2.4641331092
 H       -15.1694554233        9.9103832909       -3.4978873069
 H       -14.1419587614        5.6471786930       -2.4070795504
 H       -15.3157221250        6.6772237207       -3.2544955338
 H       -15.5340212482        6.2466044322       -1.5324751011
 H       -14.9428421270        9.7257846447       -0.7487712504
 H       -15.5645662998        8.2130865173       -0.2458034643
 H       -16.0899853741        8.9149290577       -1.7811977345
 H       -12.3593112484        8.5804499081        5.7266183802
 H       -11.1838149394        9.7282317686        5.0070068193
 H       -10.7751966887        8.4952918545        6.2541010461
 H        -8.9102502330        8.3153744272        4.4101005489
 H        -9.4311993607        8.7633812550        2.9494840696
 H        -9.2105177863        7.0422020928        3.3147701165
 H       -14.0598759837        0.2503389121        3.5880618076
 H       -14.8915042959        1.7763740183        3.1517366576
 H       -14.8605419015        1.2689545569        4.9592446435
 H       -13.1753577529        0.4024858213        6.0080712879
 H       -12.6013025795        1.9728920113        6.4243782821
 H       -11.5005252327        0.8222275944        5.5509064807
 H        -8.1208935424        3.5197905174        2.7207409759
 H        -7.2638985476        4.6232709833        1.7665047100
 H        -6.9943485127        2.7280386468        1.5308575805
 H       -10.2872821769        5.3326052404        1.6569051623
 H       -10.1360120847        5.3649410749       -0.0504250272
 H        -8.8485635141        5.8867938215        0.9440836759
 H        -2.7197766759        2.7368985944       -1.5821731408
 H        -4.2961307281        2.6136540609       -0.6353188374
 H        -3.9240850763        4.0784234007       -1.6143679091
 H        -2.9155927862        3.2715287047       -3.9725253542
 H        -4.6686992682        3.8061096028       -4.0593827000
 H        -4.0982854339        2.0889291979       -4.8927848114
 H        -5.7508815417       -4.2183138391       -3.2249804706
 H        -7.1287500383       -5.1557937571       -3.0634799972
 H        -6.4329378009       -4.2146293717       -1.7370960766
 H        -8.9280135711       -2.2266479377       -4.5976039964
 H        -9.2800150988       -3.9422974151       -4.2472343765
 H        -8.0501220560       -3.3024888118       -5.3741560569
 Na       -7.9968167571        0.3441832209       -0.2484527923
