117

 C        -8.9505087795       -3.6226489787       -0.7637962321
 C        -8.3356245649       -2.7082061718       -1.7332455654
 O        -8.3546652143       -1.5351994704       -1.4110531731
 C        -7.5417175504       -3.1227867022       -3.0148882374
 C        -6.6191399523       -1.7898745326       -3.3194854615
 O        -7.1217243221       -0.8114158565       -3.8635530457
 C        -5.1281640285       -1.6177438453       -2.7467715173
 C        -4.3996744283       -0.6163005542       -3.4922268031
 C        -3.8303700840        0.6384017371       -2.7238781045
 O        -2.8032847350        0.5135142240       -2.0882362359
 C        -4.3862576623        2.1901076187       -2.6644625354
 C        -5.8753844710        2.2123066370       -2.2156346618
 O        -6.1664595092        1.3988571948       -1.3273444897
 C        -6.8711925154        3.1348705547       -2.8100455757
 C        -7.3488024226        4.1999273273       -1.6422806327
 C        -8.4845873903        3.5097869981       -0.8236980834
 O        -9.2035326487        2.6013601813       -1.3377344347
 C        -8.8822204727        3.7226920337        0.6774758830
 C       -10.0129860449        2.6007186075        1.0279710354
 O        -9.7063059841        1.3803759353        0.9850753623
 C       -11.4388420368        2.9928029115        0.8845037032
 C       -12.3957118980        2.1696065943        1.7393890261
 C       -11.9228388805        2.0868961562        3.2179030227
 O       -10.7793869887        2.0166742096        3.4926460037
 C       -13.0277087952        2.0760041528        4.4376565373
 C       -13.2295227826        3.5895417793        4.5456634672
 O       -14.1068095048        4.1206144148        3.8663849857
 C       -12.3807859348        4.3230839644        5.5223056418
 C       -12.3848856141        5.8632133191        5.3180805130
 C       -11.3419752293        6.2842088261        4.2702282430
 O       -10.7360580196        5.4239963662        3.6053571509
 C       -11.1126541200        7.7728732789        3.9534728634
 C       -12.1307125243        8.1895442740        2.9152926563
 O       -13.1636140941        8.7084147897        3.2878988233
 C       -11.8155034041        7.7811409853        1.4829800403
 C       -13.0356002428        7.9519446633        0.7087405637
 C       -13.0998234210        7.4992233399       -0.9019412544
 O       -12.1995170695        6.7341180547       -1.2287497254
 C       -14.2834777506        7.8242908491       -1.7232185173
 C       -13.7355898574        8.5580385272       -3.1193451316
 O       -13.1151340751        7.9446030354       -3.8936486289
 C       -13.8908330157       10.0848823066       -3.4371073372
 C       -15.1284851422        6.6118765003       -2.3760751472
 C       -15.1729463004        8.7803583839       -1.0902422772
 C       -11.2329341778        8.6807365489        5.1812299834
 C        -9.6011400388        7.9317407564        3.4662644744
 C       -14.3840998110        1.3401954843        4.0440543585
 C       -12.3494001925        1.3167421164        5.6325491625
 C        -7.7175427136        3.5208250909        1.6022602875
 C        -9.3590987461        5.2581347190        0.7520226847
 C        -3.6716745844        2.9089388925       -1.5107835290
 C        -4.2188378297        2.8489744235       -4.1973489365
 C        -6.7961499337       -4.4881826199       -2.7872541149
 C        -8.4131966269       -3.4281964357       -4.2420280720
 H        -8.2295057080       -4.2806524580       -0.2258813417
 H        -9.4751274777       -4.4088940684       -1.2913762249
 H        -9.7780277991       -3.2625985162       -0.1934653282
 H        -4.8128356044       -2.6406187552       -2.9044039307
 H        -5.3175529408       -1.2749463432       -1.7280432845
 H        -4.8498756338       -0.1890642497       -4.3415899091
 H        -3.5339037229       -0.9382434642       -4.0233512322
 H        -7.6792674879        2.5393169960       -3.3645607835
 H        -6.3940648832        3.8435088760       -3.5145861933
 H        -7.8227917173        5.1319784440       -2.0176819112
 H        -6.4494228730        4.4967228512       -1.0441227672
 H       -11.6842048613        3.0154146639       -0.1831499664
 H       -11.6852666942        3.9549714270        1.2459098961
 H       -12.2202573705        1.0740155769        1.3600034117
 H       -13.3841995490        2.3668769545        1.5210960046
 H       -11.4070841183        3.7987083034        5.5335429732
 H       -12.9289442601        4.0065028180        6.3507907705
 H       -12.0901281231        6.2388718074        6.3377038195
 H       -13.3525417898        6.3148783058        5.0784733847
 H       -11.7342721121        6.6422683554        1.5088215869
 H       -11.0091410630        8.1371044801        0.8654533364
 H       -13.4094590302        8.9843825531        0.6322384954
 H       -13.7684934295        7.3315266910        1.2660347455
 H       -13.4273687210       10.1637198107       -4.3896848191
 H       -13.5409534153       10.9000921870       -2.7864878023
 H       -14.9155275537       10.3149142717       -3.6435448665
 H       -14.4735699734        5.7657884632       -2.4916918478
 H       -15.5264655356        6.8593588174       -3.3715247529
 H       -15.7988646634        6.2044079501       -1.6684115337
 H       -14.5791222904        9.6757304209       -1.0161813664
 H       -15.5471509534        8.5133076369       -0.1034054859
 H       -16.0440411245        8.9268702520       -1.7965896697
 H       -12.1760520736        8.3978609581        5.7986218120
 H       -11.2284874824        9.7188950683        4.9450539332
 H       -10.4808712041        8.3657841130        5.9669307779
 H        -8.9777842349        8.5412966397        4.1164338107
 H        -9.5817630917        8.5853917022        2.6650570921
 H        -9.2435172447        6.9675608224        3.2413590023
 H       -14.2190667566        0.3343140660        3.7486359669
 H       -14.8312786326        1.7588270204        3.1802329028
 H       -14.9954756493        1.5797770887        4.9024371049
 H       -12.7836996469        0.3184685264        5.5755770214
 H       -12.4320122045        1.7790082882        6.6536587271
 H       -11.3302447521        1.1231903614        5.4031618457
 H        -8.0181975074        3.7883308888        2.5810708475
 H        -6.8944606312        4.2050900497        1.5142766225
 H        -7.5154624747        2.4096403418        1.6005092509
 H        -9.5257442010        5.5463379545        1.7825985069
 H       -10.3034342777        5.4304033776        0.3080226253
 H        -8.5584287614        5.8262710499        0.3335767055
 H        -2.5600416907        2.8839262817       -1.8591440553
 H        -3.8462284442        2.4073804444       -0.6226676332
 H        -3.9594067748        3.8789606904       -1.3198045658
 H        -3.1505671955        3.0583031891       -4.2311971718
 H        -4.7299201633        3.8778462738       -4.1792697694
 H        -4.4367710376        1.9360044022       -4.8293197055
 H        -6.0238329857       -4.5458183597       -3.5643789665
 H        -7.3581315896       -5.4268146909       -2.9440223034
 H        -6.2163885070       -4.5650208075       -1.8039653081
 H        -9.3930982930       -2.8522271059       -4.3000931983
 H        -8.5842790499       -4.4452370940       -4.2360662833
 H        -7.9900528200       -3.0794752245       -5.1665361448
 Na       -8.0612418018        0.3615426654       -0.1981334737
