117

 C        -9.1844135985       -3.8107988457       -0.5444370610
 C        -8.3511128161       -2.8346594220       -1.3671883858
 O        -8.3922793271       -1.6108588084       -1.0952949498
 C        -7.5274595378       -3.2673013564       -2.5600842194
 C        -6.5943687659       -1.9890660893       -3.1384104842
 O        -7.1364242984       -1.3408055150       -3.9419245584
 C        -5.2622084870       -1.5406204164       -2.4249234893
 C        -4.6401153433       -0.5317795998       -3.3941254064
 C        -3.7494461501        0.4806505790       -2.6017847498
 O        -2.6510379723        0.2807383324       -2.1282444094
 C        -4.4115786827        1.9907201889       -2.7044837961
 C        -5.9158663788        2.0554276965       -2.1255402680
 O        -6.3344062569        1.2783511098       -1.2771031825
 C        -6.7957323471        3.1389260386       -2.8005817328
 C        -7.3939595601        4.0218044123       -1.7728543145
 C        -8.5274490583        3.3128048655       -1.0203951163
 O        -9.1505118581        2.4857327373       -1.5612898451
 C        -8.7918070505        3.6271386550        0.5833798387
 C        -9.9095955350        2.6780477250        1.0027452658
 O        -9.6270811752        1.5149689411        1.0734461799
 C       -11.3774306555        3.1403640571        0.8525361816
 C       -12.4383363468        2.2697242006        1.5259938896
 C       -11.9824927957        2.0810761042        3.0104202172
 O       -10.7841308005        2.0171999010        3.2570984180
 C       -13.0197534930        2.0338923640        4.2559207850
 C       -13.2542307389        3.5270259918        4.3884295960
 O       -14.1874613554        4.1446191457        3.9427836136
 C       -12.3688690839        4.4509389414        5.4342530072
 C       -12.4968691591        5.9032140209        5.0739442123
 C       -11.2081210803        6.3536125451        4.2256408268
 O       -10.4710309116        5.4938948529        3.8650240270
 C       -11.0519760316        7.9003783573        3.8803441868
 C       -12.1301206791        8.2406797819        2.7632461053
 O       -13.0507343820        8.9351613201        3.1447301934
 C       -12.0164966302        7.7271092015        1.3602101631
 C       -13.3746167148        8.1263116031        0.5509216604
 C       -13.2486817275        7.7174292414       -0.8660609294
 O       -12.2855096500        7.1606698961       -1.2978520195
 C       -14.3335888557        8.0927155470       -1.7471419447
 C       -13.6598911313        8.5700167454       -3.0513845541
 O       -12.9818352059        7.7075684717       -3.6149863441
 C       -13.6989463346       10.0311000542       -3.3523155240
 C       -15.1878293301        6.8524573834       -2.0844797062
 C       -15.4087760732        8.9980648362       -1.1551581477
 C       -11.0817224700        8.7152271143        5.1482317372
 C        -9.6562011116        8.0326511950        3.2186231559
 C       -14.3261578335        1.2939464484        4.0143893967
 C       -12.2591442922        1.4387106249        5.5024127474
 C        -7.4936656547        3.3039306894        1.4248455214
 C        -8.9989751078        5.0915506188        0.5914452283
 C        -3.5122458402        2.9518635693       -1.8629074100
 C        -4.2814122489        2.5637725334       -4.1754320294
 C        -6.5669457240       -4.3863141245       -2.3971691017
 C        -8.6402404230       -3.4185991161       -3.7033246868
 H        -9.0406144949       -3.5197971980        0.4722305192
 H        -9.1715120757       -4.8706477855       -0.5264887991
 H       -10.2371060464       -3.6302631010       -0.7321399196
 H        -4.6932418149       -2.4700756252       -2.3263500573
 H        -5.6965362011       -1.1610887878       -1.4774250478
 H        -5.2294586274        0.1034015523       -4.0997423981
 H        -4.0918919667       -1.0630490949       -4.1947532483
 H        -7.6320460599        2.6860285767       -3.2919979188
 H        -6.3129117960        3.8036976873       -3.5300328930
 H        -7.8137089712        4.9477591291       -2.1786721276
 H        -6.6957775690        4.3519722337       -1.0127125888
 H       -11.4550924202        3.0079502072       -0.2603475106
 H       -11.8404786788        4.1376563413        1.1301860390
 H       -12.7026805450        1.4416804129        0.9224150644
 H       -13.4703176208        2.8383735929        1.6278923741
 H       -11.3451788637        4.0864459685        5.4417509760
 H       -12.9375128862        4.0216151832        6.3542106608
 H       -12.6334084714        6.4655673321        5.9741680322
 H       -13.3787743614        6.0872710293        4.4423408659
 H       -11.8238778759        6.6903691119        1.1667531504
 H       -11.0557369598        8.2839862913        0.9402354510
 H       -13.7966516661        9.1231057784        0.5155657616
 H       -14.1497438427        7.4432027753        0.8466434603
 H       -13.2888820479       10.3691132766       -4.3559228080
 H       -13.0977093215       10.3968566194       -2.5602058035
 H       -14.6601285673       10.5701349991       -3.2437721686
 H       -14.6765645896        6.0439933085       -2.7429975060
 H       -16.0607568057        7.2038675594       -2.5424824582
 H       -15.3069407685        6.2359753013       -1.1987507292
 H       -14.8959712545        9.8953454335       -0.6877541623
 H       -15.9582206666        8.3542299390       -0.3946146052
 H       -16.2068883714        9.2900282180       -1.7984615514
 H       -12.1257947003        8.8601560933        5.3725905372
 H       -10.7945475358        9.7230916736        4.8961357711
 H       -10.6160118444        8.3063981687        6.0459180625
 H        -8.9559726192        8.3611219334        3.9895423267
 H        -9.4988078110        8.9533886647        2.4951223110
 H        -9.3847049926        7.0089766972        2.8029140921
 H       -13.9978365445        0.3016194954        3.8147684716
 H       -14.8022743256        1.6309432503        2.9640036919
 H       -15.0213884533        1.4111245201        4.7727530110
 H       -11.8818973159        0.4094616856        5.2261929152
 H       -12.9240485986        1.3578727238        6.2632920726
 H       -11.4553928813        2.1477101918        5.9587053139
 H        -7.4540592845        4.0918880575        2.2085476925
 H        -6.6169225649        3.7051035482        0.8790286149
 H        -7.5700148637        2.3265433452        1.8700266670
 H        -9.0220506970        5.4460196113        1.6685135122
 H       -10.0866140466        5.2296184140        0.3452006335
 H        -8.3168749927        5.6508953218       -0.0595640328
 H        -2.6280747108        3.1344167938       -2.3798660749
 H        -3.2313644892        2.3647871632       -0.9740702756
 H        -4.0406083365        3.7724595713       -1.3167444038
 H        -3.4778799977        1.9401549421       -4.6127986055
 H        -3.9115268987        3.4850310683       -4.1914964875
 H        -5.1093838627        2.2986368391       -4.7218315670
 H        -6.5881181639       -5.0301477505       -3.3101351310
 H        -6.8272360548       -5.0803772385       -1.5678710925
 H        -5.5562335455       -4.0903788780       -2.1613465107
 H        -9.6121737517       -3.0524578734       -3.4687263891
 H        -8.6923017088       -4.4834245141       -4.1397575453
 H        -8.3496208319       -2.6813047143       -4.4938694189
 Na       -8.1690483471        0.6098287018       -0.3471468617
