117

 C        -9.2555739636       -3.8096893021        0.1451120009
 C        -8.3848626170       -2.8507866426       -0.7963233753
 O        -8.1978524031       -1.7876633180       -0.2543820767
 C        -7.7171377477       -3.3168701936       -2.1586221938
 C        -6.9521604014       -2.1412597215       -2.9770081123
 O        -7.2543511818       -1.9353205661       -4.0923031806
 C        -5.7542026629       -1.2841627344       -2.2040329868
 C        -4.7494700233       -0.8514356406       -3.2641677507
 C        -3.7735475158        0.2552691318       -2.5853577452
 O        -2.7943159666        0.0572672230       -1.9249429746
 C        -4.2005116686        1.8329190015       -2.8540688521
 C        -5.6936746865        2.0608881556       -2.3042318416
 O        -6.1502733009        1.4909052437       -1.3324218200
 C        -6.5712090160        3.1109829684       -3.0142209939
 C        -7.4762774868        4.0683179464       -2.0149008968
 C        -8.5161395212        3.1653473288       -1.3115779547
 O        -9.0203472396        2.2795982842       -1.9438323970
 C        -8.6602086665        3.5336339949        0.2791433071
 C        -9.9747311348        2.6092203122        0.7685888833
 O        -9.9012186832        1.3998910006        0.6978823280
 C       -11.2773107018        3.4065684971        1.1291437201
 C       -12.3055783331        2.5489552884        1.8111141857
 C       -11.8664668799        2.1794324382        3.1534505272
 O       -10.6702859235        2.2808567797        3.4596426519
 C       -12.9735870493        2.0655686047        4.2373652386
 C       -13.3666830829        3.5878595050        4.2464187560
 O       -14.3609149464        4.0042010098        3.7288381761
 C       -12.4426183833        4.5329637118        5.1707318587
 C       -12.4161948350        6.0603685563        4.8251891000
 C       -11.0692110139        6.4810654985        4.1848843593
 O       -10.2159791288        5.7508475475        3.8141353820
 C       -10.8350413090        8.0139005824        3.8694042789
 C       -12.1151542156        8.4231466269        2.9815729170
 O       -12.9498009458        9.2469259560        3.3197431166
 C       -12.4513173295        7.7715001039        1.5743038133
 C       -13.6040225454        8.2586358768        0.7793802068
 C       -13.3619729375        8.0470730097       -0.7321749607
 O       -12.3655521921        7.3771084643       -1.0174319745
 C       -14.4101366891        8.2503364053       -1.8782614092
 C       -13.5041932214        8.6263227793       -3.1264482870
 O       -13.3795337969        7.7438144224       -3.9789830645
 C       -13.4767433522       10.0737163324       -3.5041569715
 C       -15.2223992793        6.9316538149       -2.1528990693
 C       -15.4813447544        9.3212903768       -1.4087949342
 C       -10.8836056035        8.7393146442        5.2023274531
 C        -9.6119956037        8.3287970456        3.1304186942
 C       -14.1432076098        1.3538534643        3.5486062319
 C       -12.4588678151        1.5354480620        5.5960511205
 C        -7.4463844482        2.9197416946        1.1348715253
 C        -8.8154597957        5.1284073530        0.5563449074
 C        -3.1676732216        2.8168352361       -2.1601382722
 C        -3.9964057931        2.1050467988       -4.3550763689
 C        -6.5228459808       -4.3859812946       -1.8452974161
 C        -8.6964664837       -3.9867906439       -3.2811009956
 H        -9.8996488349       -3.2826091656        0.8269944315
 H        -8.6450466372       -4.5272222265        0.7308968623
 H        -9.9889388937       -4.4963836825       -0.3453642541
 H        -5.2814350132       -2.0954772190       -1.5979751924
 H        -6.1222747314       -0.5439984244       -1.5164915845
 H        -5.0951051853       -0.3256279271       -4.0969769373
 H        -4.2259124083       -1.6979667770       -3.6722133930
 H        -7.2967461482        2.7779235641       -3.8295552998
 H        -5.9410527480        3.8500546593       -3.5321498448
 H        -8.1373508435        4.6561583411       -2.6672433395
 H        -7.0245392183        4.8643553833       -1.3693250203
 H       -11.8354516100        3.6359635619        0.1785835566
 H       -11.1726850587        4.2986995850        1.7529022461
 H       -12.4538288721        1.6933593615        1.2281202489
 H       -13.4051670793        2.8721180800        1.8346005798
 H       -11.5337872200        3.9677587900        5.2068859145
 H       -12.9419557593        4.3047138477        6.1396747794
 H       -12.7313387405        6.6172513986        5.7022733325
 H       -13.1318398030        6.2821154916        3.9965774072
 H       -12.4906009015        6.6644275995        1.7281407800
 H       -11.5353271047        7.7648281051        1.0609500398
 H       -13.9611542381        9.1739585217        1.3205619674
 H       -14.4093052447        7.4736802390        0.7464164115
 H       -12.7364105009       10.2944297579       -4.2610483472
 H       -13.2604360200       10.6528441078       -2.6071241742
 H       -14.4089855971       10.4875852064       -3.7989180774
 H       -14.6598588036        6.0577655844       -2.5272250684
 H       -16.0683657341        7.1130470142       -2.7734191028
 H       -15.5691125593        6.5603207012       -1.1858723070
 H       -15.0976690108       10.3320062759       -1.3084489387
 H       -16.0792473584        8.8566308245       -0.6624692255
 H       -16.2346557557        9.3470067641       -2.1645107702
 H       -11.8034462092        8.8012148518        5.7897847804
 H       -10.7688063879        9.8854044272        5.0708545993
 H        -9.9628098685        8.3951460810        5.7112508771
 H        -8.9393140627        7.5231731192        3.2274403086
 H        -9.2199045753        9.2888673128        3.5105383997
 H        -9.8230256683        8.4979823409        2.0955081048
 H       -13.9264987685        0.4759495619        3.0344120221
 H       -14.6656995407        2.1376973085        2.9153245557
 H       -14.7949020873        1.1643460663        4.2919382925
 H       -12.2889907445        0.4922521246        5.4847009752
 H       -13.0469181184        1.6639424608        6.4178749229
 H       -11.5842252628        2.1377882475        5.9490103711
 H        -7.5535176094        2.9189341416        2.2702552709
 H        -6.5637605351        3.5257916118        0.8843706059
 H        -7.4187774304        1.9238404934        0.7836769015
 H        -9.2866329175        5.3426994883        1.4838061444
 H        -9.2247648485        5.6601628795       -0.2562253233
 H        -7.7508717373        5.3787388133        0.6017296561
 H        -2.2258744435        2.4974225670       -2.2326637025
 H        -3.4086706610        3.0792954631       -1.1319763199
 H        -3.3906087777        3.7680140789       -2.6420051362
 H        -2.8805162335        2.0408572814       -4.6246978331
 H        -4.2308695971        3.1425396865       -4.4133060548
 H        -4.6204310734        1.4276574407       -4.9843422062
 H        -6.2591354306       -4.7490987355       -2.8706721710
 H        -6.7064178277       -5.1739231116       -1.0872608366
 H        -5.6860891225       -3.8407799376       -1.4910683858
 H        -9.1410105712       -3.2483704644       -3.8685085803
 H        -9.4728083113       -4.6857400699       -2.8794752854
 H        -8.0416089674       -4.6601214206       -3.8726225364
 Na       -8.3799747247        0.4254869632       -0.6894644031
