117

 C        -9.1357057966       -3.8603348170        0.2558222476
 C        -8.3209408751       -2.9614569400       -0.5421834256
 O        -7.9469170132       -1.8424627208       -0.0880301595
 C        -7.6530552254       -3.5766508237       -1.8800889331
 C        -6.9731834966       -2.3563432605       -2.7323198961
 O        -7.3486286221       -2.2213514019       -3.9097887553
 C        -6.0432272238       -1.2981960702       -2.0768776941
 C        -4.9621386528       -0.9993917937       -3.0559636489
 C        -4.0343543787        0.1428207605       -2.5208524168
 O        -3.1133929467       -0.0969769605       -1.8103606412
 C        -4.2186003091        1.7145081304       -2.9532144625
 C        -5.6060253912        2.2557522214       -2.5630058137
 O        -6.0525300903        1.8622642755       -1.4791191848
 C        -6.4196003566        3.3339181959       -3.2580535247
 C        -7.2325406301        4.1028737205       -2.2984177084
 C        -8.2143545608        3.1081784977       -1.4835464400
 O        -8.8773751842        2.2479626841       -2.1227087352
 C        -8.5238135737        3.3812463066        0.0268539486
 C        -9.9719935578        2.7571750465        0.3656172592
 O       -10.0345527305        1.4973782123        0.2260456790
 C       -11.0089551225        3.5961457242        1.0111134456
 C       -12.0749366080        2.6610599296        1.7829397099
 C       -11.8156167833        2.3049584204        3.3431005193
 O       -10.6487594179        2.3193587620        3.6622427635
 C       -13.0218378847        2.1622533676        4.2884481613
 C       -13.3096127897        3.7170028869        4.2787924728
 O       -14.2677143271        4.2548337438        3.7305360587
 C       -12.3242809914        4.5963398536        5.0521004545
 C       -12.4643972303        6.0010931863        4.5984647351
 C       -11.1443577434        6.5603325073        4.0859120304
 O       -10.2783890195        5.7557601845        3.6658332360
 C       -10.9947268277        8.1034125008        3.8199745002
 C       -12.3007948525        8.6695790148        3.1458914785
 O       -12.9384721671        9.5832651400        3.5245561027
 C       -12.6020700902        7.8817564929        1.8528781261
 C       -13.7019642153        8.4532034649        0.7206847718
 C       -13.3177031359        8.0234171777       -0.7321532949
 O       -12.2480304867        7.4942954516       -1.0180294714
 C       -14.4112085952        8.2987317168       -1.8327210040
 C       -13.7079660124        8.6763709255       -3.2131316373
 O       -13.7003615226        7.8650882357       -4.1076833240
 C       -13.2361980224       10.1362710541       -3.5722311784
 C       -15.2337603932        6.8998646373       -2.0473166534
 C       -15.2817072686        9.4317324685       -1.3994411234
 C       -10.8643410156        8.7113654757        5.2665992852
 C        -9.7475899109        8.4012816848        2.9255293252
 C       -14.1847069869        1.3404256247        3.6583563112
 C       -12.7002228441        1.5943523026        5.6646288206
 C        -7.4858567714        2.6423656179        1.0048755259
 C        -8.6479817303        4.9139286845        0.3121571099
 C        -3.0881802792        2.4919716918       -2.0481555838
 C        -4.0743160060        1.8158983272       -4.5287400807
 C        -6.5408783855       -4.5041763170       -1.3779463777
 C        -8.8728021056       -4.3194098457       -2.6048577755
 H       -10.1193434436       -3.4975767241        0.5244326399
 H        -8.5870457883       -4.1822739231        1.0968262788
 H        -9.4173459577       -4.7663438162       -0.1729821782
 H        -5.7604566642       -1.6130229159       -1.0464586157
 H        -6.5530260515       -0.2925318299       -1.9128042602
 H        -5.3949762680       -0.9525525230       -4.1196199946
 H        -4.1465272831       -1.7728183613       -2.9909417974
 H        -6.9301703111        2.6914084463       -3.9497292607
 H        -5.8964969706        4.0506519320       -3.8954967777
 H        -7.7854681175        4.9979207699       -2.6076355797
 H        -6.5638839699        4.5069326036       -1.5623115499
 H       -11.6696511642        4.1919326616        0.3497416571
 H       -10.5536772618        4.2148459011        1.8187375406
 H       -12.0836151876        1.5641235387        1.3816571642
 H       -13.0686463143        2.8168367393        1.5407006305
 H       -11.3466980088        4.0782530848        4.8636991250
 H       -12.5500130878        4.4872642628        6.1108600027
 H       -12.8625557881        6.5787192967        5.4532487020
 H       -13.1494844801        6.1557659439        3.7789540926
 H       -13.1026036268        6.9839372356        2.2525828126
 H       -11.6207211044        7.3435962411        1.7074628652
 H       -13.7399902980        9.5252564230        0.7869548149
 H       -14.6943204752        8.1473272841        1.0706159509
 H       -12.3371049549       10.2101792700       -4.1487836710
 H       -13.2001239987       11.0500376262       -2.8932717934
 H       -14.0799134273       10.3422044193       -4.2582249819
 H       -14.6438086625        6.0516220553       -1.9368150650
 H       -15.6640010296        6.8553103060       -3.1094055317
 H       -16.1632546431        6.7592572421       -1.4580293224
 H       -14.5582626734       10.1808129241       -1.0789174859
 H       -15.9784774532        9.0164733310       -0.6374680701
 H       -15.8909118519        9.9805330421       -2.1990215111
 H       -11.5554335413        8.2978444707        5.9690602597
 H       -11.1897002404        9.7550308101        5.3306455570
 H        -9.8535924902        8.6772393117        5.5435370242
 H        -9.2045403727        7.3569408196        2.8546182713
 H        -9.2000266510        9.2811198226        3.2398406430
 H        -9.9952783084        8.6737783044        1.8530158178
 H       -13.6448183485        0.4432561101        3.1565850107
 H       -14.7558093211        1.8841099990        3.0159034922
 H       -14.8044508510        0.6725343061        4.3897365775
 H       -12.9973599065        0.5462959336        5.8203855534
 H       -13.2739505895        2.2148990902        6.5516479479
 H       -11.7479610490        1.7928497689        6.0295341088
 H        -7.8641734876        2.9575900811        1.9716422427
 H        -6.4669141974        3.0826960001        0.8369330686
 H        -7.4722736214        1.4866695419        0.9166488093
 H        -8.4487668271        5.0166832326        1.4044848329
 H        -9.7147310851        5.1963883723        0.0233835369
 H        -7.9645005440        5.5442386493       -0.2947286654
 H        -2.1572183889        1.8368005072       -1.9861015734
 H        -3.4007468650        2.5791942917       -0.9678505744
 H        -2.8845774987        3.4679059875       -2.4909616097
 H        -3.0962377539        1.6175217505       -4.7856922485
 H        -4.4748919261        2.8512725874       -4.8983216749
 H        -4.7999107005        1.1595622323       -5.0848256292
 H        -5.5915034067       -4.3351786830       -1.8979499426
 H        -6.9225739584       -5.5203206061       -1.5217513213
 H        -6.3902532555       -4.4596734734       -0.2382925216
 H        -8.8816130816       -3.9161460587       -3.7045353820
 H        -9.8989402321       -4.0818039120       -2.3228057091
 H        -8.7400574075       -5.3967910400       -2.4862861190
 Na       -8.3388494825        0.3058630789       -0.8720276792
