117

 C        -8.9452511733       -3.7435493498        1.0668764512
 C        -8.2970368014       -3.0684036134       -0.0643944738
 O        -8.3832999289       -1.7746284456        0.0379412591
 C        -7.6804677772       -3.7304601335       -1.3528479342
 C        -7.0687684160       -2.6251534065       -2.4315492141
 O        -7.5310685128       -2.6872515053       -3.5887856835
 C        -5.9549955622       -1.6976438598       -2.0746511674
 C        -5.2006065351       -1.0590032379       -3.3121214189
 C        -4.2148635591       -0.0158491580       -2.4883075918
 O        -3.6695303505       -0.3935359547       -1.5161369035
 C        -4.1182023795        1.4455957843       -3.0012426358
 C        -5.4979942235        2.0893918417       -2.5231607132
 O        -6.1006405479        1.4982359021       -1.6060773144
 C        -6.0831641582        3.2747132889       -3.2138742608
 C        -7.1310783208        4.1023110104       -2.4453187537
 C        -7.9855702763        3.1299996291       -1.7696650134
 O        -8.3812940227        2.1621915179       -2.4143308820
 C        -8.4968195771        3.3834995650       -0.1795094969
 C        -9.8436112268        2.6903384329        0.1331118292
 O       -10.2196720134        1.6024691087       -0.2873232121
 C       -10.6315922032        3.3908855005        1.1639433403
 C       -11.7594880671        2.5159052491        1.6136817692
 C       -11.6985082181        2.1850851896        3.2226322078
 O       -10.5470390502        2.0397728813        3.6295546031
 C       -12.9298990343        2.2774763314        4.1794249472
 C       -13.2920155278        3.9224907688        4.3100015144
 O       -14.2955941902        4.3144329205        3.6960737913
 C       -12.4805742658        4.7779842186        5.2585718137
 C       -12.3617438279        6.2275014729        4.8757206933
 C       -11.2322023593        6.7142118607        3.9240700063
 O       -10.6984915390        5.7875056004        3.3004106450
 C       -11.1417077880        8.2554028514        3.7321830611
 C       -12.3697424420        8.7535020259        2.9744340630
 O       -12.9791165391        9.7365452421        3.2708819427
 C       -12.9693857880        7.9459496260        1.7693959161
 C       -13.4413823192        9.0114190392        0.8147763016
 C       -13.2953224644        8.4340007392       -0.7267433511
 O       -12.3820569442        7.6885766484       -0.9921320066
 C       -14.4234400847        8.4403329088       -1.6518717792
 C       -13.7049407971        8.6390904995       -3.0759615805
 O       -13.9798546453        8.0145945851       -4.0659525508
 C       -12.7872490497        9.8959126124       -3.3527359573
 C       -15.1595292839        7.0881105993       -1.6345603820
 C       -15.4154713447        9.6789454701       -1.5919147539
 C       -10.9332442859        8.9971052996        5.0507453444
 C        -9.8487840944        8.7171934118        2.7939154387
 C       -14.2504379734        1.5836605428        3.7266275030
 C       -12.6889762360        1.6236018094        5.6079637659
 C        -7.3756029661        2.7682538478        0.7037956433
 C        -8.5135084136        5.0640712882        0.0480319205
 C        -2.9521310144        2.4387280735       -2.4480979489
 C        -4.0716226010        1.3150283748       -4.5784965174
 C        -6.3581199676       -4.5851943003       -1.0531704229
 C        -8.8374791731       -4.5917314951       -2.1474339572
 H        -9.4500935438       -4.7250332930        0.8489170432
 H        -9.4073123190       -3.1403834221        1.8516939372
 H        -8.1458514577       -4.1504239578        1.6930863459
 H        -5.1753336157       -2.1585290608       -1.4837825788
 H        -6.3115862484       -1.0140099963       -1.2507297059
 H        -5.8582195301       -0.4072151915       -3.8912816188
 H        -4.8146380904       -1.8553625035       -3.8582231642
 H        -6.6052981142        2.9278693474       -4.1250124057
 H        -5.2022150556        3.8745272565       -3.6390497903
 H        -7.6976396373        4.7143720103       -3.2165217219
 H        -6.8961761365        4.8383296819       -1.6677425745
 H       -11.0347483340        4.3702108471        0.8937015904
 H        -9.9796813011        3.4773900741        2.0783554454
 H       -11.7335809129        1.5856164779        1.0399455995
 H       -12.7714364709        2.8014165796        1.4209172085
 H       -11.5224119528        4.2460738576        5.3894118542
 H       -13.1582875545        4.6010105703        6.1887853240
 H       -12.1322559570        6.8090083394        5.7645808606
 H       -13.3240332345        6.6262615011        4.4691081804
 H       -13.5295790903        7.3135555303        2.3192281085
 H       -12.2635667748        7.2423240114        1.1288836765
 H       -12.7486106024        9.8446946556        0.7836042379
 H       -14.3429058199        9.5647114259        1.0422919535
 H       -12.0391829205        9.6193000191       -4.0614942089
 H       -12.2194682023       10.3221609305       -2.5602538471
 H       -13.3119454123       10.7388143017       -3.7662325263
 H       -14.5594112170        6.4509537859       -2.2418499481
 H       -16.1272378901        7.1442435892       -2.1541961417
 H       -15.4629365751        6.6428752326       -0.7129197999
 H       -14.9671897337       10.6509756833       -1.6732145263
 H       -15.9121985055        9.6297806664       -0.5967456569
 H       -16.0105209963        9.5667573444       -2.4680190406
 H       -11.9228762274        8.7665788133        5.6197335792
 H       -10.8233735375       10.0632905040        5.0018210791
 H       -10.0062377689        8.7176571286        5.6560712299
 H        -9.0165987389        8.4324348466        3.4108229674
 H       -10.0311572534        9.7244931196        2.4957213547
 H        -9.7657158615        8.1679748189        1.9009605635
 H       -14.3068113570        0.5308121705        3.7869485905
 H       -14.4876379080        1.9058284285        2.8544216886
 H       -15.0811513771        1.9077621386        4.3822129983
 H       -12.2369828930        0.6600930777        5.6503895724
 H       -13.7482112061        1.4469770803        6.1112672378
 H       -12.2262859650        2.1479509685        6.3382441825
 H        -7.5892235107        2.9336276608        1.7363339550
 H        -6.4723474810        3.1936296032        0.3029954966
 H        -7.1249083038        1.6990554504        0.5100860594
 H        -9.1788271295        5.2924030500        0.8700146598
 H        -8.7122108589        5.4959622934       -0.8962096975
 H        -7.6326961267        5.4331794722        0.4097634698
 H        -1.9676730109        2.3892206780       -2.9817922691
 H        -2.7289688599        2.1060946749       -1.4860994637
 H        -3.2187087713        3.4139039023       -2.4944960669
 H        -3.4768637885        0.5336175931       -4.7223421043
 H        -3.7079144490        2.2168610893       -5.0963888796
 H        -4.9774674600        1.2717974553       -5.0966682789
 H        -5.7103936924       -3.9956314578       -0.4638770731
 H        -5.9255178679       -4.8528662062       -1.9909957725
 H        -6.6684339665       -5.4801405622       -0.4895635363
 H        -8.3284448987       -5.3498474864       -2.8074624786
 H        -9.1239994052       -3.9530054779       -2.9277714789
 H        -9.6220630033       -4.9704422046       -1.5758334966
 Na       -8.5102345311        0.3138663728       -1.0022660852
