117

 C       -11.1137692622        8.9783631410       -1.9905606210
 C        -9.9019989223        9.8012070636       -2.3764841581
 O        -9.6407757564       10.8115297160       -1.8100499139
 C        -8.9547688012        9.3719885609       -3.5548154847
 C        -7.8192637889        8.1523508305       -3.2603605452
 O        -7.6929857880        7.3468752436       -4.1272658798
 C        -6.8288136933        8.1462578677       -2.0276607431
 C        -5.7710570587        7.0632644712       -1.9927786610
 C        -6.3796150766        5.7381464988       -1.5927726529
 O        -7.5470359327        5.6431374660       -1.2771931051
 C        -5.5880664557        4.2925986989       -1.7201990502
 C        -5.5087710400        3.9309617607       -0.2354306863
 O        -4.5324102754        4.1776550360        0.4650567218
 C        -6.7417970698        3.1783000417        0.3686575629
 C        -6.6973089613        3.2332794549        1.9318475584
 C        -7.1641303368        1.9083916465        2.5737385408
 O        -8.0151752482        1.2159320102        2.0296491071
 C        -6.6905115020        1.6513815915        3.9907751477
 C        -7.5845220660        2.7838104319        4.7601987632
 O        -7.1295966474        3.8874146111        4.9463848385
 C        -9.0453005933        2.3960436831        5.0549976579
 C       -10.0020207867        3.6388244597        4.9405682573
 C       -10.3727968292        3.8482390760        3.4866044399
 O        -9.6422762115        3.4085228338        2.5791435162
 C       -11.6977008241        4.4221376399        3.0751572063
 C       -12.6417184103        3.2502809764        2.3924522124
 O       -12.1008276854        2.2393199523        1.9107273450
 C       -14.1292011745        3.3139009334        2.4509698436
 C       -14.8003888999        2.6358856860        1.1825964620
 C       -14.5594576466        3.4966533970       -0.0498438711
 O       -14.1876573818        4.6801496759        0.0278027715
 C       -14.9726798648        3.0021407372       -1.5018915080
 C       -14.0780496070        1.7497466210       -2.0394749553
 O       -14.4454069698        0.5805420317       -1.9520460983
 C       -12.7026888060        1.9833593445       -2.7277430336
 C       -11.8752182644        0.6918752492       -2.8730650655
 C       -10.7063276647        0.7043896790       -1.9722714708
 O       -10.3675949964        1.7271574415       -1.3426919638
 C        -9.9287646802       -0.6432188500       -1.7397743081
 C       -10.5850823316       -1.2970402610       -0.4422190727
 O       -10.4080784808       -0.7236278745        0.6019906085
 C       -11.3845771543       -2.5247953388       -0.5341549610
 C       -10.1467037448       -1.5835757272       -3.0028196384
 C        -8.4118312733       -0.3606755342       -1.5384014457
 C       -16.4878890565        2.6422703672       -1.4269430372
 C       -14.7598132408        4.1593063213       -2.5391790615
 C       -12.5652949437        5.2535829137        4.1116119367
 C       -11.3478580971        5.4142038639        1.8434413369
 C        -7.0731997268        0.2041763219        4.4464001658
 C        -5.2240975887        1.9432780525        4.0345990125
 C        -6.4614373887        3.4495970404       -2.7018243421
 C        -4.2621556131        4.5056939790       -2.4075807488
 C        -9.8366813264        8.8554798854       -4.8031590406
 C        -8.0865485016       10.5036941626       -4.0266424879
 H       -10.7208561465        7.9457989229       -2.0639675252
 H       -11.8291300765        9.1205063583       -2.7699973588
 H       -11.5444742729        8.9531613406       -1.0120633798
 H        -7.4967871604        7.9985767038       -1.1624546185
 H        -6.3292955696        9.1223585609       -1.7316849331
 H        -5.0180365896        7.3966956927       -1.2488056728
 H        -5.3126102883        7.0284623819       -3.0110325979
 H        -6.6408702382        2.1172933902        0.0470847718
 H        -7.7849604296        3.4415245245        0.0163819455
 H        -7.2711223025        4.0804824013        2.1821871409
 H        -5.6008676175        3.3136682575        2.1790432978
 H        -9.2672867865        1.9580331993        6.0398941634
 H        -9.5493929954        1.6788294802        4.3444918584
 H        -9.3850686945        4.5449550434        5.2194563561
 H       -10.8206085929        3.5572417303        5.6606671557
 H       -14.5159708965        4.3320510965        2.5543323181
 H       -14.3940585863        2.7506894937        3.2995790765
 H       -15.9065522748        2.3984939961        1.3880550379
 H       -14.3415248367        1.6116962970        1.0316444128
 H       -12.0680960704        2.7647328880       -2.2865894594
 H       -12.9211406400        2.3406091201       -3.7211680939
 H       -11.3961578036        0.6701351180       -3.9291624257
 H       -12.4830819195       -0.2883057257       -2.9387941000
 H       -12.0533890114       -2.6669863282        0.3405537105
 H       -10.7712903036       -3.4776498206       -0.6331350819
 H       -11.9258668931       -2.5155574214       -1.5223603944
 H        -9.9098281370       -1.1532085172       -3.9204380554
 H       -11.2440363662       -1.5699516893       -3.0818031856
 H        -9.5885207232       -2.5516738173       -2.8139918723
 H        -8.1154181452       -0.0581811469       -0.4391007668
 H        -8.2446764629        0.5059456975       -2.1082425949
 H        -7.7110880910       -1.0865059911       -1.9454088963
 H       -16.4922806294        1.6386556719       -0.9144409609
 H       -16.9455797961        2.6880303851       -2.3783649925
 H       -17.0282334965        3.3480412170       -0.8534597233
 H       -15.4532373398        4.0478979062       -3.3314409243
 H       -13.7671742195        4.0954343507       -3.0503190501
 H       -14.8505037663        5.1647929191       -2.1656671516
 H       -11.9556861047        5.8281050922        4.8202987655
 H       -13.2157444999        4.5593018723        4.6792754049
 H       -13.1421634814        5.9439004905        3.4132339703
 H       -10.9741010633        6.3684279991        2.1684782696
 H       -12.2736704764        5.6357518846        1.2527703344
 H       -10.5993371987        4.9825418518        1.2009073486
 H        -7.2368909567        0.1576045646        5.5095397563
 H        -6.3603332365       -0.5652560326        4.0684120407
 H        -7.9665510897       -0.0986055479        3.8830974398
 H        -4.7039950687        1.8196722347        3.0667165157
 H        -4.7206952209        1.3661802285        4.8503958565
 H        -4.9400472150        2.9160954916        4.2951868903
 H        -7.4734571564        3.1097226849       -2.4231478731
 H        -5.8766467544        2.5390524420       -3.0553511085
 H        -6.6457730330        3.9549113773       -3.6225935586
 H        -4.4211095467        5.1013018334       -3.2729218230
 H        -3.9388127660        3.5383504505       -2.8325918951
 H        -3.5704014068        4.9678799423       -1.6923384919
 H        -9.1468067498        8.6812958541       -5.6804952098
 H       -10.5155448250        9.7091570598       -5.0388509827
 H       -10.2634218212        7.8469036512       -4.6525237440
 H        -7.5856705631       10.9247854193       -3.1587821157
 H        -8.6526216466       11.3350665426       -4.3880256641
 H        -7.3041393424       10.2109764304       -4.7270544551
 Na      -10.0840808536        1.6151843072        1.0510688403
