117

 C        -8.5786902760       -2.8665440968        1.8045997677
 C        -8.2616935296       -2.6825288364        0.3563001570
 O        -8.3926398304       -1.5691625633       -0.2003568677
 C        -7.8653991921       -3.9030239871       -0.4313527858
 C        -7.1058686096       -3.2275715392       -1.6043629357
 O        -7.8453429611       -2.6498093061       -2.4689573177
 C        -5.5744159481       -3.2191761343       -1.9145532565
 C        -5.2508625383       -1.9648361369       -2.7032011509
 C        -4.2042716570       -0.7962457927       -2.3312539582
 O        -3.1737911984       -1.0544395619       -1.7771844560
 C        -4.4354055459        0.5044522848       -3.1519171173
 C        -5.6245308634        1.3387447640       -2.7094251725
 O        -6.4298303681        0.9913254255       -1.8263039739
 C        -5.9177403936        2.6650094199       -3.4197315012
 C        -6.5793482773        3.6793118567       -2.4832003072
 C        -7.8828619369        3.1363682745       -1.9554382350
 O        -8.5157930566        2.4145104096       -2.7037677153
 C        -8.3277816456        3.7373871661       -0.5443295771
 C        -9.5407346169        2.7628290617        0.0977695175
 O        -9.4659522971        1.5766175713       -0.0700816110
 C       -10.6399695787        3.4403244763        0.8203461658
 C       -11.6689049885        2.4721047549        1.3399981998
 C       -11.6438222220        2.3084244917        2.9818333494
 O       -10.6133961993        1.9437856203        3.4883991051
 C       -12.9237540773        2.5338824450        4.0727623628
 C       -12.9136417399        4.1584354984        4.2113927447
 O       -13.6941661744        4.9520296047        3.5941123071
 C       -12.0787929479        4.7489604837        5.3517428544
 C       -12.0704551074        6.3622053868        5.2942668435
 C       -11.5707001574        6.9626625133        3.8681131421
 O       -11.4954070416        6.2583678895        2.8460280530
 C       -11.3043699175        8.3900195249        3.8473749929
 C       -12.6394952893        9.2396777537        3.0458412122
 O       -13.0248003724       10.2361191293        3.6173380752
 C       -13.1900239638        8.5390539595        1.6760364866
 C       -13.4728719844        9.5452389593        0.6127972853
 C       -13.3607530875        8.7729719241       -0.7939388020
 O       -12.4621868151        7.9890102324       -0.9496357614
 C       -14.4264621414        8.9592351001       -1.8637080775
 C       -13.8635271798        8.7266519483       -3.3572613416
 O       -14.3998009510        8.1074877728       -4.2637214150
 C       -12.6424641707        9.4207460986       -3.9226401480
 C       -15.5463404750        7.9011952438       -1.5459697170
 C       -15.0774072607       10.4062072939       -1.9567637000
 C       -11.0466494439        9.1958134321        5.0496935460
 C       -10.0391902068        8.6690411630        2.8827966844
 C       -14.2401858128        1.9012843958        3.5653964911
 C       -12.4590166983        1.7744545093        5.2689625269
 C        -7.1161672039        3.6525806317        0.5429189797
 C        -8.6480397911        5.2921409616       -0.6831552467
 C        -3.1402320708        1.3694360273       -2.9510858245
 C        -4.5279629941        0.3171593826       -4.7107256062
 C        -6.6822436911       -4.6172860497        0.4350804973
 C        -9.0175431887       -4.8425056167       -0.8159435342
 H        -8.8410434461       -2.1145193891        2.5354126742
 H        -7.7069505978       -3.3046830326        2.2688777647
 H        -9.3200262192       -3.5909240114        1.9892649584
 H        -5.3779736599       -4.0438291307       -2.6024095799
 H        -4.7488109512       -3.5273895889       -1.2070313021
 H        -6.2462312451       -1.3523444108       -2.7416080902
 H        -5.2823832446       -2.2217601583       -3.7802750320
 H        -6.4738035790        2.4394666974       -4.3032979676
 H        -4.9170866606        3.0077566435       -3.6594251328
 H        -6.8829167445        4.5753066560       -2.9975755554
 H        -5.9766228927        3.8937677593       -1.6105500519
 H       -11.0860039266        4.2514153340        0.2704231436
 H       -10.0336197247        4.0313949757        1.6033319687
 H       -11.3838885161        1.4053351022        1.1608712632
 H       -12.7066104594        2.7635525602        1.1026220195
 H       -11.1347925587        4.3277991027        5.4049179252
 H       -12.5404608229        4.4571150777        6.2939897766
 H       -11.3803201470        6.6743397802        6.0909760177
 H       -13.0347836570        6.9234305991        5.4296392525
 H       -14.1597647573        8.2790396429        1.8088924423
 H       -12.6058248173        7.5620433985        1.5569416860
 H       -12.6643319914       10.3020738657        0.7821463425
 H       -14.3447435199       10.1571977443        0.8510203324
 H       -12.0755122824       10.1175484664       -3.3321044435
 H       -13.0131513819       10.0682081297       -4.7725619698
 H       -11.8730987351        8.7029366397       -4.3084865593
 H       -15.2815246344        7.1768162779       -0.8944296777
 H       -15.8623833651        7.3804868336       -2.4805349538
 H       -16.4720662143        8.3567736907       -1.1194214736
 H       -14.3975709968       11.1480519630       -2.4309518985
 H       -15.4584405468       10.8029433493       -0.9549992751
 H       -16.0079424443       10.1760664269       -2.4509483506
 H       -11.9746146474        9.2296800649        5.5803577060
 H       -10.8744024264       10.2243744243        4.7479819408
 H       -10.4289523036        8.7518868286        5.7994135925
 H       -10.2986974960        9.5525313981        2.2297578542
 H        -9.8336285541        7.8724121212        2.1322314792
 H        -9.2279291592        8.6956545004        3.6721918550
 H       -14.2078163156        0.7882340301        3.1936418098
 H       -14.5446560550        2.4047725560        2.6274038904
 H       -15.1562433796        2.0510753488        4.2009854600
 H       -12.1209039477        0.7718215929        5.0512851849
 H       -13.2675535956        1.5076691506        6.0742586454
 H       -11.6279342468        2.1534533161        5.7810726869
 H        -7.6796850585        4.0027646595        1.3946279029
 H        -6.4258949251        4.5220481612        0.3112566240
 H        -6.6218106188        2.5814261839        0.6705432965
 H        -9.2895776887        5.5323983218        0.2067569973
 H        -9.2390446406        5.5487176971       -1.6005263204
 H        -7.7103411278        5.7811340518       -0.5878596577
 H        -2.3511676269        0.5972211676       -2.8093117512
 H        -3.1032144914        1.9433416985       -1.9264643209
 H        -2.7015047531        2.0957444499       -3.6764921436
 H        -3.8338216516       -0.3050873479       -5.3543391389
 H        -4.1864679013        1.3022312417       -5.2199340876
 H        -5.5119651968       -0.1626084101       -5.0977437018
 H        -6.5311455945       -5.6152507713       -0.0232890067
 H        -7.0082537242       -4.8824706264        1.4682813845
 H        -5.6703571301       -4.0486210642        0.3813689552
 H        -8.5929862937       -5.4003270630       -1.7458281736
 H        -9.9140874418       -4.2540995060       -0.9585690787
 H        -9.1861790319       -5.6940777415       -0.1573113712
 Na       -8.5414122203        0.0130430910       -1.7234189458
