117

 C        -8.8229323013       -2.7657500758        2.2629522399
 C        -8.3170585439       -2.3826805376        0.8761989158
 O        -8.1559372758       -1.2303317818        0.4380510525
 C        -7.7270392227       -3.5431609272        0.0003617524
 C        -7.2091986112       -3.0063445180       -1.3062844644
 O        -8.0486874593       -2.5333403915       -2.1558550851
 C        -5.7425102784       -3.1095675544       -1.6861921919
 C        -5.2419402161       -2.3968761194       -3.1111837763
 C        -4.2862004912       -1.2897451427       -2.6477075047
 O        -3.5142580839       -1.5345213216       -1.7652201521
 C        -4.3268653462        0.1366795218       -3.4009300462
 C        -5.6250066768        0.7896928348       -2.7294596186
 O        -6.2349017499        0.2617869506       -1.7970132601
 C        -6.0926051309        2.1457857340       -3.3887966566
 C        -6.5533722156        3.2798132646       -2.5010927054
 C        -7.9423875116        2.9838286066       -1.8239976993
 O        -8.7137145977        2.3372048655       -2.4752565296
 C        -8.3751012167        3.6471256546       -0.5916025632
 C        -9.4720122803        2.7581941971        0.0191961680
 O        -9.4750975194        1.5354878007       -0.0749807086
 C       -10.6873958250        3.5107961509        0.7282316075
 C       -11.7183052926        2.5862797823        1.3478532937
 C       -11.4537996790        2.4435592668        2.9425668646
 O       -10.3178261048        2.4299390053        3.3808649449
 C       -12.6933680739        2.5145709836        3.7742853676
 C       -12.9716588730        4.0503466196        4.1045867051
 O       -13.9588651115        4.7289076668        3.6551208846
 C       -11.9367881767        4.7749189870        4.9813078196
 C       -12.0770381933        6.2689506498        4.9785396996
 C       -11.3702217687        7.0113935639        3.7770523894
 O       -10.7542734710        6.3638377160        3.0011047810
 C       -11.3958122367        8.5600913712        3.6344493709
 C       -12.6621644119        9.0395897408        2.9427442138
 O       -13.0970291863       10.1625730866        3.1995774798
 C       -12.8792756182        8.4164227637        1.5431200944
 C       -13.5519204100        9.4891191121        0.5977653419
 C       -13.4074040165        8.9420515334       -0.9089072597
 O       -12.4785527096        8.2664641740       -1.2624690631
 C       -14.5293613557        9.2357734565       -1.9215697510
 C       -13.8830358229        8.7223041027       -3.3188904999
 O       -14.4294999374        7.7952045449       -3.8983606238
 C       -12.5592235041        9.4093291313       -3.7347046766
 C       -15.8655744186        8.5152388352       -1.4613671898
 C       -14.8388409545       10.8587756079       -2.0181797256
 C       -11.3639210310        9.2810056934        5.0708052020
 C       -10.2065499672        8.9958605234        2.8437189759
 C       -13.8853607634        2.0642856718        3.0730464043
 C       -12.4057602355        1.8545739600        5.0885182326
 C        -7.2875710090        3.8395960744        0.4717373341
 C        -8.9002242004        5.2321919340       -0.8609180809
 C        -3.0785309794        0.9819737637       -3.0296508573
 C        -4.3026279347        0.0943814890       -4.9939152851
 C        -6.7187248218       -4.3736797319        0.6725317649
 C        -9.0662776034       -4.3106700831       -0.3412432938
 H        -9.4794596665       -3.6394619759        2.3705322487
 H        -9.4264985930       -1.9847914996        2.7509781576
 H        -8.1083317095       -3.1010376826        2.9904166869
 H        -5.6643470923       -4.2294231898       -1.8141587954
 H        -4.8933154875       -2.8898415900       -1.0349879261
 H        -6.0585638997       -2.0704952988       -3.7179227570
 H        -4.7651693098       -3.1702235021       -3.6763058469
 H        -6.9204519178        1.7831442944       -4.0772249284
 H        -5.2878809648        2.5519943855       -4.0040026270
 H        -6.6396125490        4.0945450804       -3.2291436387
 H        -5.7896006322        3.5712949087       -1.7176596007
 H       -11.0427948999        4.0845058833       -0.1412757783
 H       -10.4043073564        4.4097734047        1.3434932465
 H       -11.6260927880        1.6287043492        0.8892830916
 H       -12.6933751034        3.1467354833        1.4409563447
 H       -10.9352903829        4.4784712530        4.5982466619
 H       -11.9815776446        4.2526851258        6.0326445933
 H       -11.6655714474        6.9166355681        5.7267418355
 H       -13.1610128785        6.4381570753        4.9297155916
 H       -13.5642728806        7.5400020547        1.5465519599
 H       -11.8791294879        8.0576596718        1.0781067186
 H       -12.9160380876       10.4013539371        0.6279889832
 H       -14.5051137013        9.7754609391        0.9520300745
 H       -11.8965031877        8.6532756265       -4.1271498839
 H       -11.9823705826        9.9519823859       -3.0636744462
 H       -12.7502357678        9.9682623942       -4.6302704349
 H       -15.9737178688        7.4941378518       -1.6721384143
 H       -16.6636008320        9.0551397158       -1.9728451982
 H       -16.0596514754        8.5645837355       -0.3477973083
 H       -13.8858021439       11.3939911587       -1.9688535483
 H       -15.6148082850       11.0675948972       -1.3092719114
 H       -15.3180003123       11.0928983379       -2.9001152886
 H       -12.1475981686        8.9935059066        5.7893758527
 H       -11.5515475911       10.3162577634        4.9530828477
 H       -10.3895970674        9.0099775931        5.6200702629
 H       -10.3578146919        9.9191049560        2.4078781106
 H       -10.2554826309        8.3133435258        2.0252872271
 H        -9.3824760146        8.7749394483        3.4355549384
 H       -13.8905807183        1.0625363846        2.6296517295
 H       -14.0038751319        2.7562362989        2.2579499241
 H       -14.8538757645        2.1834836909        3.5461876632
 H       -12.5211064386        0.7575609403        5.1582068058
 H       -13.1885563989        2.2279586902        5.9042553221
 H       -11.4746830454        2.0842416621        5.4819951560
 H        -7.6098064025        4.3313426592        1.3016377530
 H        -6.5698629077        4.5659864851        0.0989416980
 H        -7.0203872286        2.8189151692        0.6887097045
 H        -8.7586761321        5.8690044019        0.0292738532
 H        -9.9270291229        5.2623003383       -1.1864640466
 H        -8.2702333214        5.5304990285       -1.6030026745
 H        -2.3200576883        0.9237430407       -3.7967888839
 H        -2.5249968652        0.6725463264       -2.1554412991
 H        -3.3230341663        1.9587286031       -2.8788634223
 H        -3.6953479590       -0.6969542356       -5.3659568716
 H        -3.9781893948        1.0331953672       -5.5081959655
 H        -5.1598714840       -0.1688575158       -5.5843912911
 H        -6.2476354107       -5.0242339179       -0.0167622341
 H        -7.1034516744       -4.9058654031        1.4983742456
 H        -5.9852590443       -3.7295090463        1.1244686498
 H        -8.9613643122       -5.4066721922       -0.4275441360
 H        -9.4601164569       -3.8761389748       -1.2190911407
 H        -9.7930871729       -4.0883950972        0.4016207091
 Na       -8.5199010436       -0.0093840817       -1.5531619277
