117

 C        -8.7080248418       -2.3124994186        2.7332120984
 C        -8.2903799270       -2.0972261031        1.3235545746
 O        -8.2518931226       -0.8916880344        0.9803101602
 C        -7.8579593932       -3.3093956552        0.2765956828
 C        -7.3238463889       -2.5780518004       -1.1098329714
 O        -7.9715383476       -1.8248135345       -1.7936398767
 C        -6.0418783315       -3.2688144062       -1.7791196401
 C        -5.4960015142       -2.5228018755       -3.0916532040
 C        -4.3305903519       -1.6987663792       -2.7438952413
 O        -3.5768059782       -1.9567920182       -1.8494334853
 C        -4.3014354240       -0.2419075624       -3.4547987127
 C        -5.6236871838        0.4692803360       -3.0493780068
 O        -6.1741903331        0.0355818525       -2.0763417984
 C        -6.0550529529        1.7835984417       -3.6150660758
 C        -6.3020982420        2.7682182290       -2.3850963081
 C        -7.8486705692        2.6985762335       -1.9848449819
 O        -8.6661099298        1.9968825747       -2.5450781302
 C        -8.4004916007        3.5765552981       -0.7585437896
 C        -9.5863112228        2.8943254874       -0.0858792554
 O        -9.6563901759        1.6548418208        0.0489423109
 C       -10.7456814017        3.6995315176        0.6489482438
 C       -11.9746078030        2.8062061462        1.2800079574
 C       -11.5591934821        2.6121242490        2.8416307681
 O       -10.4182964755        2.8665634331        3.2291979735
 C       -12.7885146427        2.4477073943        3.8814827805
 C       -13.0099812322        3.9912114071        4.0521693185
 O       -14.0617325400        4.4900570589        3.5571899297
 C       -11.8995054397        4.8821947536        4.7340797823
 C       -12.1062585122        6.4230375972        4.7768767586
 C       -11.1216860969        7.1221254186        3.5979230223
 O       -10.3093117735        6.5647873264        2.8990713825
 C       -11.2338926183        8.7333537763        3.7232672622
 C       -12.4539127663        9.1279911847        2.8130966211
 O       -13.3006343539        9.8222113438        3.3105535569
 C       -12.8069656698        8.3169583113        1.5491389473
 C       -13.7917551942        9.1007844878        0.5256600171
 C       -13.4863581622        8.8814781858       -0.9499003645
 O       -12.4293129265        8.4027770770       -1.2311583301
 C       -14.4252049241        9.4089760259       -2.0535663404
 C       -14.0184870530        8.8208757521       -3.3919162019
 O       -14.5646429891        7.7731023457       -3.6961974108
 C       -12.9588581251        9.4559361824       -4.2656021361
 C       -15.9392659345        9.0119746119       -1.8251694074
 C       -14.3938809980       10.9953922076       -1.9852063628
 C       -11.4371454264        9.3545569686        5.0495000741
 C        -9.9025617263        9.3366446446        3.1245090143
 C       -14.0524864322        1.9068889891        3.2173798750
 C       -12.2630815087        1.7478881144        5.1090187929
 C        -7.2319224228        3.5797024050        0.3044385887
 C        -8.7106697148        4.9069029321       -1.5441686331
 C        -3.0497524961        0.5996996017       -3.0801013327
 C        -4.2812717054       -0.5330776651       -4.9606877828
 C        -6.8022978476       -4.2447920854        0.8734285896
 C        -9.0506946678       -4.1410891266       -0.1183067035
 H        -7.9625846470       -2.6278903383        3.4493905498
 H        -9.5463626357       -2.9881923142        2.9325229083
 H        -8.8676433984       -1.3916973262        3.2808425388
 H        -6.4452863467       -4.2985477427       -1.9889156039
 H        -5.2587101174       -3.3482402748       -1.0440337414
 H        -6.4011331574       -2.0286696336       -3.3061858699
 H        -5.3173449173       -3.2747633309       -3.9123532845
 H        -6.9964475407        1.5500456095       -4.1280449612
 H        -5.3462077368        2.0423555083       -4.3626412387
 H        -6.0493617520        3.7992706541       -2.5530617555
 H        -5.7486117859        2.4663897514       -1.4854846793
 H       -11.1155233764        4.4607325475       -0.0756879409
 H       -10.3277296414        4.3878309012        1.3238056885
 H       -12.1910855879        1.8932387437        0.8669018545
 H       -12.8058201813        3.5541516879        1.4961161489
 H       -10.9288824534        4.7403721464        4.2453241628
 H       -11.7208111346        4.5252002360        5.7674015993
 H       -11.7756921171        6.9501333051        5.7076319708
 H       -13.0981128682        6.8150550533        4.6080006516
 H       -13.1053756566        7.3041576767        1.9630934242
 H       -11.9705069909        8.2816643204        0.9247806914
 H       -13.7686603744       10.2096152835        0.7035014454
 H       -14.8014235085        8.6733420415        0.7697017772
 H       -13.2962149173        9.6469991263       -5.3617843165
 H       -12.0538245035        8.8716941285       -4.3158823660
 H       -12.6661133476       10.4814507509       -3.8838851631
 H       -16.4500088122        8.4196653568       -2.6200117135
 H       -16.4104943746        9.9601581947       -1.6985277547
 H       -16.0718908996        8.4531000978       -0.8590659752
 H       -13.3335079791       11.2873165292       -2.2547567397
 H       -14.7482782038       11.2133654735       -0.9693045911
 H       -15.0093886501       11.4495398010       -2.7428684484
 H       -12.4780664503        9.1620485812        5.2812064236
 H       -11.3872738779       10.3742169552        5.0531815414
 H       -10.6891695440        8.9245277680        5.8236850058
 H        -9.9203263103       10.3275265196        3.5087162096
 H        -9.9930570500        9.3711934966        1.9645513455
 H        -9.0526948639        8.7703116044        3.5607412615
 H       -13.9679934380        1.7916812583        2.1735860201
 H       -14.8820884657        2.4614359163        3.3424818881
 H       -14.3646090471        0.9210688205        3.6043684357
 H       -12.3191731609        0.6918619614        5.0069332852
 H       -12.5274777619        2.0760193455        6.2021589383
 H       -11.2791487552        1.9690002259        5.0974832147
 H        -7.3498444408        4.1498956142        1.2125095083
 H        -6.6042425258        4.3577652848       -0.1946785228
 H        -7.0620957604        2.5427079129        0.5125449885
 H        -9.4330723033        5.6541945173       -1.0499232362
 H        -9.0395343593        4.5464878112       -2.5378499401
 H        -7.7601012092        5.4307741532       -1.7386958997
 H        -2.0911310399        0.2677833417       -3.6555625777
 H        -2.7006461293        0.7100234612       -2.0558925328
 H        -3.3400158024        1.5935766144       -3.3821749806
 H        -3.4459147858       -1.0234391454       -5.2364426394
 H        -4.3541467681        0.3168513270       -5.6120092362
 H        -5.0660469986       -1.0215463079       -5.4115766419
 H        -6.5194825854       -4.9833313646        0.0572759555
 H        -7.2792337354       -4.8153721519        1.7233184656
 H        -5.9183122773       -3.8535073805        1.3476996767
 H        -8.8513417976       -4.7144524493       -1.0067711383
 H        -9.8200894631       -3.3834426981       -0.3956983448
 H        -9.4183924137       -4.7188599930        0.7747543015
 Na       -8.2483258822        0.1957425607       -0.9581099235
