117

 C       -11.1599835099        8.8845521766       -2.1425549348
 C        -9.9095190164        9.7613356454       -2.5580074483
 O        -9.6876374523       10.8009543433       -1.8639821667
 C        -8.9801672916        9.3339937965       -3.7188496907
 C        -7.9900048039        8.1530226228       -3.2412166442
 O        -7.7816493229        7.2310215926       -3.9950773241
 C        -6.9397653142        8.3102310680       -2.0471732652
 C        -5.8915362545        7.0965134881       -2.1608979671
 C        -6.4899224775        5.7485868938       -1.7104155625
 O        -7.6393790447        5.7155534794       -1.3008323448
 C        -5.6022936860        4.3914432185       -1.8706117017
 C        -5.4501008783        3.7812090776       -0.3233648913
 O        -4.4548493419        4.0399421845        0.3354464271
 C        -6.7725947227        3.1550964937        0.3422660203
 C        -6.6337189132        3.3270085012        1.8856834928
 C        -7.2410883423        2.1116046028        2.5571532756
 O        -7.9717170643        1.2942008385        2.0155749630
 C        -6.7457978129        1.7452791956        4.0890809989
 C        -7.5257036408        2.7786368284        4.8212565400
 O        -7.1912697476        3.9384001829        4.8597235430
 C        -8.9794068899        2.4172058545        5.1318191230
 C        -9.9202635278        3.6234264263        4.9664689399
 C       -10.3824817788        3.7900610779        3.4679186137
 O        -9.6482350222        3.3540534608        2.6401159289
 C       -11.7383612668        4.4345525134        2.9668794879
 C       -12.6016194842        3.2013440679        2.3987549580
 O       -12.0359087009        2.2632189734        1.8951690138
 C       -14.0669922851        3.2502154840        2.3694144456
 C       -14.7021762230        2.6406804685        1.0835211368
 C       -14.4468018730        3.5373494548       -0.1375426550
 O       -14.3324454978        4.6732772243       -0.0129559553
 C       -14.8723002842        2.9333325162       -1.5723386890
 C       -14.0496366373        1.7381016862       -1.9662137771
 O       -14.4640950521        0.5738385129       -1.7493725222
 C       -12.7324821089        2.0760755216       -2.6662842302
 C       -11.9044686215        0.8404654321       -2.8562294897
 C       -10.7861967365        0.7382480109       -1.8321231013
 O       -10.4665183450        1.7092470685       -1.1916988639
 C       -10.0120521966       -0.6482079338       -1.6764727858
 C       -10.4912367470       -1.3053368226       -0.2935910257
 O       -10.2964039758       -0.7249969892        0.7807665395
 C       -11.3350738020       -2.5224220882       -0.3602453916
 C       -10.1536044006       -1.4907259886       -2.9475423034
 C        -8.4091624302       -0.4205706119       -1.5365941748
 C       -16.3426325092        2.4823490175       -1.3820101756
 C       -14.8169569912        4.1223486512       -2.5144178337
 C       -12.3922129062        5.3249883868        4.0998811361
 C       -11.2772536028        5.4402679685        1.8815193968
 C        -7.1205000545        0.2839265870        4.5962303331
 C        -5.2003131812        1.8491115738        4.2367773885
 C        -6.4942423342        3.4705827038       -2.6954164638
 C        -4.2242500231        4.5467648923       -2.4572921470
 C        -9.8922792075        8.6646438271       -4.8476859194
 C        -8.1418788356       10.4547418928       -4.2872365766
 H       -11.0753938957        7.8045979245       -2.1607440123
 H       -12.0591332073        9.3231145687       -2.6637257133
 H       -11.3429196412        9.0071303855       -1.0413386762
 H        -7.3056129446        8.4642651515       -1.0771303505
 H        -6.3953816609        9.1826975770       -2.1878798624
 H        -5.0321349651        7.4037281647       -1.4893558161
 H        -5.5717236233        7.0948409716       -3.2034456201
 H        -6.9160404196        2.1460722754        0.0593787254
 H        -7.7324792227        3.5961302865        0.0910961700
 H        -7.3964759726        4.1576296191        1.9827989151
 H        -5.6341788890        3.5450602047        2.2439591165
 H        -9.2604873927        2.0538313717        6.0738511444
 H        -9.4411428413        1.6448349613        4.4439068981
 H        -9.2042020650        4.4820353632        5.2218811108
 H       -10.6222833392        3.5931294767        5.7785919462
 H       -14.4224321662        4.2918699032        2.4544246507
 H       -14.4790973787        2.6318449696        3.1938518613
 H       -15.7928045383        2.4921142590        1.2948061145
 H       -14.3185784222        1.5863079610        1.0066986847
 H       -12.2259239947        2.8782575432       -2.1604689920
 H       -12.9922777540        2.4887168801       -3.6774998744
 H       -11.5594029961        0.6752573728       -3.8450725104
 H       -12.6175543891       -0.0009910435       -2.7815678783
 H       -11.9629592559       -2.7005062722        0.5578765386
 H       -10.6578925386       -3.3708036284       -0.3242404629
 H       -11.8581806967       -2.6865917938       -1.3099767976
 H        -9.7892461838       -0.9136423287       -3.8406025926
 H       -11.1792485058       -1.6590027668       -3.2630124396
 H        -9.4617929939       -2.2715750707       -2.6451954166
 H        -8.2020949581       -0.1982931996       -0.4772848966
 H        -8.0729982232        0.4186508537       -2.1136011778
 H        -7.7639221901       -1.2690007916       -1.8744500253
 H       -16.3405783264        1.5796263876       -0.8228341003
 H       -16.7456375723        2.3526905526       -2.3782899276
 H       -16.9285472657        3.2224821181       -0.9315557591
 H       -15.6824799489        4.1339569022       -3.2065201326
 H       -14.0018887123        4.2605652566       -3.0744260160
 H       -14.8905729833        5.0274058768       -1.9357619930
 H       -11.6339941493        5.7808516503        4.6796433965
 H       -12.8893008500        4.6475719047        4.7626786000
 H       -13.0616545916        6.0225684511        3.6116121030
 H       -11.0597495093        6.4411360733        2.3687389761
 H       -11.9895133014        5.6371964361        1.0370287768
 H       -10.3438277171        5.0641505184        1.4171884601
 H        -7.4550044636        0.3866348364        5.6323193350
 H        -6.3693787394       -0.4446939232        4.4586034340
 H        -8.0124528605       -0.1176225508        3.9363723990
 H        -4.7624702673        1.2743704366        3.4209789963
 H        -4.8601375186        1.4302023302        5.2151075993
 H        -4.5821813421        2.7936280016        4.1441300531
 H        -7.4686019990        3.1751154983       -2.2324723796
 H        -5.9910868801        2.5643415015       -2.9688091444
 H        -6.8366937939        3.8787699772       -3.6546657578
 H        -4.2073601253        4.9708816834       -3.4271961807
 H        -3.9348536445        3.5390296475       -2.6502669733
 H        -3.6075492171        5.0106087455       -1.7032236333
 H        -9.2851244491        8.4772468477       -5.7879316966
 H       -10.6538731614        9.4006718529       -5.0668840147
 H       -10.2046934645        7.6298096388       -4.5205996462
 H        -7.3353578554       10.7260381866       -3.5844126219
 H        -8.7202237556       11.3742089647       -4.3902545691
 H        -7.6554136657       10.2260701240       -5.2572031220
 Na       -9.9541440153        1.6038348975        0.9847157427
