117

 C        -8.5504205204       -2.4450083250        3.0541446441
 C        -8.0623803855       -1.9569784766        1.7101803221
 O        -8.0013510647       -0.7218092543        1.5255399652
 C        -7.8978819629       -3.1728488713        0.5839962838
 C        -7.5627008014       -2.6114716341       -0.9211085676
 O        -8.0066490670       -1.6852916773       -1.5149624093
 C        -6.4726105130       -3.5377776139       -1.6749289373
 C        -5.7673306252       -2.9677621501       -2.9643542549
 C        -4.4784170888       -2.1451137360       -2.6739431184
 O        -3.5113293702       -2.4733569863       -2.0282778347
 C        -4.4053078752       -0.7058234600       -3.4549063695
 C        -5.4617395278        0.3037159006       -2.9306004684
 O        -5.9464622993        0.1381310467       -1.8612191086
 C        -5.7316421358        1.6529840703       -3.7226856316
 C        -6.4177192923        2.7693667862       -2.8172379621
 C        -7.7816608832        2.5529097869       -2.2224132968
 O        -8.5133106564        1.6299841940       -2.5634686447
 C        -8.4126437937        3.5351648266       -1.0135759296
 C        -9.7401126974        2.9493412735       -0.3935311559
 O        -9.8656653437        1.7389563902       -0.1245169353
 C       -10.7919884088        3.9182282215        0.2880354143
 C       -12.0149137324        3.2822691288        1.1213558277
 C       -11.5121100652        2.8152906980        2.5023054168
 O       -10.3549525867        2.4116225879        2.6978039716
 C       -12.6027027786        2.6720471253        3.6858040075
 C       -13.0224574847        4.1420239483        4.0196240786
 O       -14.0533770162        4.7209237996        3.6112329015
 C       -11.9769751342        5.0637235190        4.6747881847
 C       -12.2925765534        6.5545739798        4.5637035823
 C       -11.2073758654        7.2484104562        3.6947309272
 O       -10.3528909973        6.5734701694        3.1457616619
 C       -11.2711280957        8.7936994654        3.6627793506
 C       -12.5281317641        9.2266801356        2.8040404507
 O       -13.5238641833        9.6848356253        3.2995752514
 C       -12.5114312396        8.6935239103        1.2972974665
 C       -13.8001085393        8.6866506592        0.5102740137
 C       -13.4251728233        8.7095126329       -1.0031765125
 O       -12.3247706673        8.3468710451       -1.3516779612
 C       -14.3202464047        9.4608298288       -2.0238088677
 C       -14.1081491494        8.8173326304       -3.4195944951
 O       -14.7089883007        7.7900664103       -3.6729102503
 C       -13.4214011049        9.7041744479       -4.4725436409
 C       -15.8638846380        9.4736932955       -1.7466555889
 C       -13.8192822691       11.0506616356       -2.1260155591
 C       -11.3286149146        9.2970989365        5.1578726443
 C       -10.1402152774        9.4049879216        3.0217928820
 C       -13.7728604744        1.8502926576        3.2741039409
 C       -11.8742675958        2.1592781100        4.9365684454
 C        -7.4438789899        3.6152789429        0.2456434392
 C        -8.7996084229        4.9635739935       -1.7191274109
 C        -3.0411895246        0.0522205178       -3.1598195071
 C        -4.6272956751       -0.9538016722       -5.0212800459
 C        -6.8639502214       -4.1091016626        1.1879996329
 C        -9.2830903352       -3.8545708185        0.5272016432
 H        -8.8195924869       -1.7276694996        3.7907509466
 H        -7.9835463398       -3.2044204202        3.5724167344
 H        -9.5778950323       -2.8383767501        2.9789180532
 H        -6.9647432913       -4.5138628806       -1.8621045692
 H        -5.5762237628       -3.5121928222       -0.9857619245
 H        -6.5473995296       -2.3239050067       -3.3767087197
 H        -5.6211001590       -3.9169348321       -3.6012840032
 H        -6.3024449193        1.5075839118       -4.6337445657
 H        -4.7280731888        1.9701568766       -4.0831315556
 H        -6.4283993208        3.7493744989       -3.3613246965
 H        -5.7786318226        2.9844659706       -1.9673936945
 H       -11.2705608057        4.6566649279       -0.4123751274
 H       -10.1775558641        4.6455126250        0.8456860989
 H       -12.3320107837        2.2717123179        0.7041577121
 H       -12.7968406166        4.0464330608        1.2113577069
 H       -10.9269913850        4.8232485466        4.4331921398
 H       -12.0040261084        5.0089821450        5.6962958350
 H       -12.4269575475        7.0493156682        5.5586245080
 H       -13.2401440063        6.7942123528        4.0359078186
 H       -11.8030962840        7.8213012101        1.1954016355
 H       -12.0436929150        9.5235065730        0.9101849886
 H       -14.4218222830        9.4764293638        0.8795774166
 H       -14.2484075370        7.6779418453        0.7121764020
 H       -13.6470185445       10.8040296964       -4.6212578849
 H       -13.4731825186        9.2789730693       -5.4072981244
 H       -12.3983552363        9.7079652929       -4.2187128158
 H       -16.3371398510        9.2734422775       -2.7762676707
 H       -16.2470343820       10.3673456263       -1.3492456025
 H       -16.0605855268        8.7170000539       -1.0365016635
 H       -12.7524770960       11.1392481016       -2.3448572634
 H       -13.9784464620       11.5528805295       -1.1904001489
 H       -14.3818892511       11.4204624018       -2.9926079579
 H       -12.2221264090        9.0828670019        5.7370700088
 H       -11.1908115052       10.3159092373        5.1161179386
 H       -10.3420688060        9.0431646862        5.6335139802
 H       -10.4272917725       10.3874212196        2.7357193612
 H        -9.6869554043        8.6012277588        2.3282908078
 H        -9.3820427873        9.6058934953        3.7858771996
 H       -14.6309811733        2.4170900302        2.7269532587
 H       -14.2361690694        1.5113538438        4.1882743173
 H       -13.4897407977        0.8239105032        2.7237665115
 H       -11.2531313289        1.2916453287        4.7237313135
 H       -12.6360436803        2.0014401748        5.8346716874
 H       -11.2945674301        2.9141037403        5.3560608902
 H        -7.9125250605        4.2973938982        1.0337319054
 H        -6.5798396173        4.1380071903       -0.2586401516
 H        -7.3155792086        2.6810022920        0.7315788039
 H        -9.0171986639        5.6827618180       -0.9503703544
 H        -9.6154308344        4.8512247966       -2.3973365556
 H        -8.0164473982        5.4028429010       -2.3488900407
 H        -2.5012019113       -0.7357386126       -2.4615664542
 H        -3.1546617867        0.9854064178       -2.6573103626
 H        -2.3976196298        0.1185225274       -4.0765879629
 H        -3.7484139452       -1.2760658424       -5.6239231116
 H        -4.9604528422        0.0083563550       -5.6710195066
 H        -5.5562748076       -1.5435082458       -5.3473223899
 H        -6.8654837044       -5.1768447415        0.9702690265
 H        -6.8407590997       -3.9832552364        2.2736431675
 H        -5.9090637061       -3.7943990783        0.9331368609
 H        -9.3132142546       -4.4935441536       -0.2733525164
 H       -10.0014179611       -3.0796224848        0.1933139909
 H        -9.5285188927       -4.3554175275        1.4882336670
 Na       -7.9744037648        0.3917502472       -0.5071062286
