117

 C        -8.4245461539       -1.7403458876        3.6274209576
 C        -7.8421658732       -1.9755061160        2.2598551804
 O        -7.2516176027       -1.0820797320        1.8427982535
 C        -8.0038283661       -3.3980502094        1.4383922691
 C        -7.8867737907       -2.8553236872       -0.0856792677
 O        -8.3894042038       -1.7968029625       -0.4560178410
 C        -7.2363759978       -3.8284690060       -1.2350105434
 C        -6.6231257623       -3.0287382105       -2.4333454069
 C        -5.1588872465       -2.4130181719       -2.3782981392
 O        -4.2096187915       -3.1248420396       -2.1610582404
 C        -4.8360304910       -1.0999188909       -3.3100853582
 C        -5.5375460597        0.1703101304       -2.7299616642
 O        -5.8499733247        0.2288646246       -1.5411767002
 C        -5.8252635248        1.3670812294       -3.6053468290
 C        -6.2216355663        2.6442240689       -2.7766687139
 C        -7.6752385371        2.3750448671       -2.3207329898
 O        -8.3570295027        1.4322800073       -2.6356271232
 C        -8.5244673270        3.5732459908       -1.3909015185
 C        -9.7451026125        3.0529085631       -0.6447225366
 O        -9.8233014338        1.8921658053       -0.2099617249
 C       -10.8461373185        4.0159547697       -0.2628064335
 C       -11.8467651850        3.3778628670        0.6162978780
 C       -11.1522548788        3.0474139294        1.9377872522
 O        -9.9647261755        3.0214531322        2.2591976683
 C       -12.0875965559        2.9464471826        3.2087557085
 C       -12.6745026397        4.3659589505        3.4776667519
 O       -13.4799135611        4.8905198397        2.7262559894
 C       -12.1260365350        5.1460214849        4.6993933448
 C       -12.3851621249        6.6973638850        4.6635584563
 C       -11.2734796853        7.4159785043        3.8414952204
 O       -10.3791917913        6.8517308549        3.2179174439
 C       -11.3456189352        8.9589300416        3.6575581029
 C       -12.4720935019        9.0110547713        2.5503673773
 O       -13.6257913900        8.8999503153        2.9658379759
 C       -12.2757142509        9.6220194556        1.1246548586
 C       -13.1416460771        8.5030697620        0.2840220791
 C       -13.1705844149        8.7850653267       -1.3257366183
 O       -12.4767250478        8.1268582583       -2.0296204769
 C       -14.1300952803        9.6966103711       -2.0460020935
 C       -14.5145192170        8.9924833936       -3.5148942053
 O       -15.1624282830        7.9914377788       -3.5462496721
 C       -13.8716381285        9.6014464977       -4.7908280949
 C       -15.4472910852       10.1645574384       -1.1401369701
 C       -13.3050409572       11.0483781007       -2.3504718560
 C       -11.8639004113        9.6868627303        4.9254033497
 C        -9.8325398946        9.4099114434        3.2216239410
 C       -13.2961888215        1.8932442909        3.1602445919
 C       -11.2425584954        2.4528874398        4.4222568890
 C        -7.5042090974        3.9504254454       -0.2495835492
 C        -8.7112145979        4.8365179606       -2.2621365453
 C        -3.2984782543       -0.7201209215       -3.4227460504
 C        -5.2348274630       -1.3903123152       -4.7967001384
 C        -6.8277718618       -4.4081057754        1.6363018501
 C        -9.3802736469       -3.9797651193        1.8517539827
 H        -9.4501430302       -1.9862044309        3.8871504082
 H        -8.4145121625       -0.7003860290        3.9320366353
 H        -7.7914136692       -2.3265773823        4.2899111889
 H        -8.0058517323       -4.4554561141       -1.7038479871
 H        -6.3688201937       -4.3009923660       -0.7327491745
 H        -7.4752096613       -2.2524188004       -2.5369513971
 H        -6.6230367873       -3.5818246243       -3.3284415772
 H        -6.6086425938        1.0685651532       -4.2995038619
 H        -4.9754647443        1.4127294171       -4.2592849914
 H        -6.1915504604        3.5372877551       -3.3743023820
 H        -5.6331822255        2.8870962866       -1.8791310315
 H       -11.1799432288        4.4205171672       -1.2198401489
 H       -10.4748593796        4.8643165704        0.3755684696
 H       -12.3349259873        2.4414751109        0.1763007170
 H       -12.6225724846        4.0133563373        0.8986797939
 H       -11.0903468396        5.1357315065        4.9123494483
 H       -12.6214004312        4.7811190741        5.6181970791
 H       -12.4569001447        6.9180443157        5.7256677355
 H       -13.3479365713        7.0222248541        4.2040936769
 H       -11.3239117114        9.3838394371        0.8411585199
 H       -12.4844513562       10.7007201140        1.0565525797
 H       -14.1926492079        8.6823666948        0.4542261535
 H       -12.9947074388        7.4431862001        0.5589431476
 H       -14.4110364117       10.4996451002       -5.2148341521
 H       -14.0870546962        8.8699496244       -5.5917096394
 H       -12.7994224125        9.7987922970       -4.8784508954
 H       -16.2754770228       10.6169982461       -1.7765086506
 H       -15.0437987643       10.9309401014       -0.4797974098
 H       -15.8467251774        9.4013727303       -0.5598926551
 H       -12.2497123037       10.9046918104       -2.3881167238
 H       -13.5150905998       11.7442430743       -1.4934060808
 H       -13.7766025274       11.6835601649       -3.1733695032
 H       -12.7574474169        9.1309971446        5.1718261809
 H       -12.0450124326       10.8127247469        4.9103856954
 H       -11.2500556786        9.4020150148        5.7086830019
 H        -9.8498240382       10.5552328164        3.0821958327
 H        -9.4632150938        8.7558859700        2.3439520004
 H        -9.2277982865        9.0427459006        4.1306175099
 H       -13.8778542504        2.0034594841        2.2657755280
 H       -13.8309877793        2.0052023827        3.9864121067
 H       -12.8483422384        0.8424866759        3.0453121657
 H       -10.6896621127        1.5952657206        4.1894660407
 H       -12.0096138738        2.1205263609        5.1519976106
 H       -10.5368073990        3.1892489322        4.8210586328
 H        -7.9377260834        4.9819322123        0.0976558527
 H        -6.5106524505        3.9767040693       -0.7355894594
 H        -7.3645081402        3.2339874962        0.6027642168
 H        -9.2961957737        5.5589219132       -1.7254762278
 H        -9.1934634230        4.8636662659       -3.2451972204
 H        -7.7157766533        5.3720572080       -2.3077234207
 H        -3.1515070041        0.3020467342       -2.8310720372
 H        -3.0671163120       -0.5672801465       -4.4355430690
 H        -2.6698433563       -1.5089186439       -2.8317382927
 H        -4.4630759520       -1.9535407290       -5.1116544545
 H        -5.2011353069       -0.5242319543       -5.4745243272
 H        -5.9738895889       -2.0868116722       -4.9484146937
 H        -6.8331578492       -5.1626731315        0.8346799420
 H        -6.8409484949       -5.0512339221        2.5281446914
 H        -5.8456679863       -3.8909051044        1.5237399963
 H        -9.4337975546       -4.9878196557        1.4073376818
 H       -10.2740051613       -3.3462698396        1.7535964095
 H        -9.3305422811       -4.2565304930        2.9059527740
 Na       -7.8682844583        0.3476503115       -0.3460805527
