117

 C        -8.3278615575       -1.8615442709        3.7490976744
 C        -7.7355399337       -1.9553928468        2.3054623577
 O        -7.0818483492       -1.0704015845        1.7436938663
 C        -8.0674440539       -3.2937759798        1.4759883496
 C        -8.0214578104       -2.8357755339        0.0502306405
 O        -8.6253763606       -1.8297710784       -0.3128216730
 C        -7.2656507657       -3.6614526877       -1.0187645213
 C        -6.6696909892       -3.0024628248       -2.3696429932
 C        -5.1840665053       -2.5716702800       -2.5136689722
 O        -4.2557266683       -3.1414025117       -1.9516439580
 C        -4.9307362550       -1.2644973630       -3.3597376060
 C        -5.7219427929       -0.0113468150       -2.7991378800
 O        -6.0811992092        0.0609323831       -1.6287796306
 C        -5.7537905635        1.3984972247       -3.6992667731
 C        -6.2492840572        2.5682666529       -2.8546063022
 C        -7.6229498414        2.4470400496       -2.3806086021
 O        -8.2200451408        1.4168276220       -2.6189294638
 C        -8.3511029566        3.6494994125       -1.3928655063
 C        -9.6984822334        3.0005104989       -0.7704960819
 O        -9.6926645011        1.8492893951       -0.3344020765
 C       -10.8562497018        3.9357435969       -0.3516272803
 C       -11.7815638698        3.3391754701        0.7435096543
 C       -11.1413479641        3.1569898902        2.0656347680
 O        -9.9264978834        3.3732877098        2.1332160191
 C       -12.0761531642        2.9877663220        3.3015284168
 C       -12.6385410928        4.5151449475        3.4448311524
 O       -13.2849953030        5.0936969724        2.5376511566
 C       -12.2433783938        5.1876768028        4.7031285930
 C       -12.2431729292        6.7044594932        4.5849131599
 C       -11.1836515418        7.3566064909        3.7104290621
 O       -10.2489484410        6.7428751251        3.1824385850
 C       -11.3684368323        8.9037359840        3.6435127365
 C       -12.6054985886        9.1633950560        2.6566654242
 O       -13.6947904206        8.8126260054        3.0001446406
 C       -12.3216337582        9.4214181809        1.1165495410
 C       -13.1219219569        8.5623775475        0.1270282607
 C       -13.1493402260        8.8137216057       -1.4221722144
 O       -12.3502868944        8.1200039014       -2.0555571643
 C       -14.1312969589        9.8117334509       -2.0862452200
 C       -14.5740354653        9.1202796228       -3.5534994224
 O       -15.2790991741        8.1122563401       -3.5414013692
 C       -13.9796332556        9.5005215075       -4.9158594680
 C       -15.2523699761       10.1547548037       -1.0910758823
 C       -13.2332834462       11.0567765315       -2.3734608562
 C       -11.9095482134        9.4619563354        4.9651846765
 C        -9.9900047249        9.6073369859        3.2470311389
 C       -13.2560200211        1.9178416023        3.1201144629
 C       -11.1868669548        2.4393167384        4.4835333002
 C        -7.4811566676        4.1322325374       -0.2386093729
 C        -8.7973365247        4.8769248779       -2.2330974551
 C        -3.4072085850       -0.9546868847       -3.2434253359
 C        -5.3399717303       -1.5737720939       -4.8049419493
 C        -6.8921810573       -4.1621614561        1.7439123355
 C        -9.3388050956       -4.0524787389        1.9024976827
 H        -9.2602490510       -2.3442984634        3.9508713002
 H        -8.6652684551       -0.8909590053        4.1202972317
 H        -7.5974946500       -2.3178490002        4.4310737417
 H        -8.0153336895       -4.2658795947       -1.4795441235
 H        -6.5013429590       -4.2866445771       -0.5637751824
 H        -7.4323860725       -2.3156076127       -2.6731303227
 H        -6.7841796232       -3.7816343563       -3.1105671671
 H        -6.3359594097        1.2911013131       -4.6037788270
 H        -4.7277175107        1.5690789303       -4.0802480329
 H        -6.0419473173        3.5069486184       -3.4029643349
 H        -5.7563260386        2.6672825939       -1.8971217632
 H       -11.3528794981        4.2570516750       -1.2356978635
 H       -10.3844398100        4.8108318425        0.1397260965
 H       -11.9782898364        2.2470755230        0.3757886293
 H       -12.7704083329        3.7401017884        0.8459438625
 H       -11.2149676277        4.8532525645        5.1539746403
 H       -12.9908155616        5.0737065176        5.4807012042
 H       -12.4222084687        6.9616358719        5.6056586617
 H       -13.1677288503        6.9681836733        4.0599752695
 H       -11.2263684756        9.1963635681        0.8477079114
 H       -12.5555470325       10.4689136015        0.8609903397
 H       -14.1335907383        8.5005618962        0.4175455680
 H       -12.8709329437        7.4646109936        0.1413555729
 H       -14.5362454382       10.4551123993       -5.3268961370
 H       -14.1739645270        8.7674402574       -5.6916633467
 H       -12.8919224201        9.7181266148       -4.9938364011
 H       -16.2731974139       10.4458407531       -1.5015130593
 H       -14.8928351682       10.8458570425       -0.3424583844
 H       -15.4621495633        9.1719696051       -0.6807555944
 H       -12.2634789063       10.6983410924       -2.7573910724
 H       -13.0959677257       11.7757853955       -1.5506939245
 H       -13.7711900801       11.7335633564       -3.1177419623
 H       -12.8508024123        9.0360944156        5.3102478785
 H       -11.9753520438       10.5021540656        4.8656516131
 H       -11.1414788044        9.1640621321        5.7904374525
 H       -10.2113043869       10.6444072239        3.1501835203
 H        -9.4580640449        9.0929388018        2.3474059816
 H        -9.3838922705        9.3632200046        4.1474490459
 H       -13.9290632238        2.0953053425        2.3643595964
 H       -13.7282714886        1.8069116837        4.0797534189
 H       -12.7810503678        1.0410263867        2.8896444268
 H       -10.9166357927        1.4627519269        4.1646702449
 H       -11.8821162070        2.1857767461        5.3826936800
 H       -10.3379155760        2.9801189854        4.6455026792
 H        -8.2362132117        4.8764698621        0.1096163899
 H        -6.5148137972        4.6120856510       -0.6428585523
 H        -7.1406541227        3.4238970782        0.4878127908
 H        -9.5364942530        5.5333453861       -1.7182822886
 H        -9.2821934099        4.7758754721       -3.2141121134
 H        -7.9083787263        5.5782253222       -2.3378463157
 H        -3.2289872139       -0.1503918444       -2.5331141815
 H        -2.9456074227       -0.7311949787       -4.2160446381
 H        -3.0539194539       -1.7984929459       -2.7638184301
 H        -4.7828994322       -2.5886544294       -4.9985940214
 H        -5.0713928091       -0.8231574663       -5.4743444745
 H        -6.2790338000       -1.9691317052       -4.8719591511
 H        -7.0951894185       -5.2775723293        1.5635760366
 H        -6.3774966746       -4.1337619525        2.7651735611
 H        -6.1169024758       -3.8835095691        1.0479821538
 H        -9.2567971142       -5.0224794118        1.5476075639
 H       -10.3317788500       -3.5238607620        1.7572325117
 H        -9.3018070473       -4.2403957341        3.0246390509
 Na       -7.8501431435        0.3216970093       -0.2772756084
