117

 C        -7.0620949570       -1.6070889434        3.9668047687
 C        -7.6100053611       -1.7249095368        2.5607101486
 O        -7.9767108518       -0.6319084708        2.1670002325
 C        -7.7048151508       -3.0864544515        1.8687916298
 C        -8.3988229339       -2.9775264077        0.4946212808
 O        -8.8579279622       -1.9573067212        0.1641734180
 C        -8.3485967192       -4.1656383809       -0.5385510787
 C        -7.7203223476       -3.5715575899       -1.8379777689
 C        -6.2956590212       -3.0019542616       -1.6046107169
 O        -5.5137180682       -3.1195320048       -0.6552348130
 C        -5.6827728509       -2.2629648076       -2.8640227106
 C        -5.6338963610       -0.7270895712       -2.5653369144
 O        -6.0305607905       -0.4156983235       -1.4238999662
 C        -5.4760362555        0.4627995861       -3.4752264146
 C        -5.9698433623        1.7676937785       -2.7935173668
 C        -7.4212417008        2.0682504971       -2.6752166549
 O        -8.2221972936        1.2948242093       -3.1148681171
 C        -7.9673440372        3.5813853544       -2.0503574288
 C        -9.2037439323        3.0940278657       -1.2733975799
 O        -9.1372541590        1.9619874997       -0.7452945133
 C       -10.5790217823        3.9533951521       -0.9536390592
 C       -11.4279758982        3.3793231849        0.2890163951
 C       -10.8715684208        3.7589007098        1.7041474160
 O        -9.7475140863        4.2833396518        1.7523934742
 C       -11.6704214405        3.4965109975        3.0243743492
 C       -12.2280215714        4.9628710845        3.2927485750
 O       -12.9292079284        5.5656902803        2.4904158285
 C       -11.9330957616        5.5530043954        4.7582280963
 C       -12.1015233497        7.0908090374        4.7877132664
 C       -11.2308070323        7.8603996860        3.8318497489
 O       -10.1186325116        7.5435473771        3.5585204550
 C       -11.8744760707        9.1884072249        3.2179622798
 C       -12.7970625553        8.7637648875        2.0441384391
 O       -14.0285877742        8.8056403236        2.2311691161
 C       -12.2665486771        8.0508589242        0.6905804000
 C       -13.2913712737        8.0257680947       -0.4861254257
 C       -12.9050007149        8.8135920411       -1.7829429566
 O       -12.0225634639        8.4398946133       -2.5139393383
 C       -13.6518999948       10.1839620250       -2.1784020954
 C       -14.7324179832        9.3937092583       -2.9799757110
 O       -15.8043741880        9.0489496913       -2.4691208062
 C       -14.2323819971        9.0375679002       -4.4575594159
 C       -14.1275499597       10.9691086393       -0.9795695759
 C       -12.6865517948       11.0133177919       -2.9408098486
 C       -12.7689235441        9.8134190253        4.3983578354
 C       -10.8023277511       10.2239913248        2.8562451664
 C       -12.9240261790        2.6394847199        2.7822933055
 C       -10.6748005314        3.1561594784        4.1143607168
 C        -6.9836985416        4.0500341697       -0.9828256556
 C        -8.3992328580        4.5700004395       -3.1519223709
 C        -4.2068298460       -2.8993256707       -3.0628572460
 C        -6.6219887553       -2.4711821353       -4.1278370709
 C        -6.2034119114       -3.7225733159        1.9876264509
 C        -8.5637731957       -3.9876637860        2.8496197434
 H        -7.4904274796       -0.6590886169        4.4083077925
 H        -5.9938010372       -1.5740982829        4.1429670414
 H        -7.4887700931       -2.3239900209        4.6758697061
 H        -9.2233249422       -4.7658249193       -0.7035187723
 H        -7.7675096212       -4.9372010352       -0.2056218121
 H        -8.2941636614       -2.8419342270       -2.3562327925
 H        -7.4592379874       -4.3496522592       -2.5315953543
 H        -6.1938678977        0.2516681614       -4.2472654952
 H        -4.4783453060        0.6112178014       -3.8749898357
 H        -5.5026589374        2.6152377329       -3.2990585197
 H        -5.5336059738        1.7130157594       -1.7865773567
 H       -11.0650078315        3.7070797455       -1.9231259836
 H       -10.5094500294        4.9655647739       -0.7355273254
 H       -11.6947652823        2.3186407405        0.0914252610
 H       -12.5657474739        3.6989814009        0.3273957681
 H       -10.9528164561        5.3289521937        5.1623093919
 H       -12.6282971246        5.0797321526        5.5599431467
 H       -12.0521602486        7.3549802128        5.8391371773
 H       -13.1520559472        7.2623065763        4.6011587900
 H       -12.0862997446        7.0441344912        1.1032964619
 H       -11.2199064858        8.4598547114        0.5764211081
 H       -14.1227167067        8.4632175813        0.1293892709
 H       -13.4045598802        7.0342135080       -0.7076924767
 H       -14.2095556363        9.8556454901       -5.1960964028
 H       -14.9111739634        8.3067258195       -4.9625647256
 H       -13.2288211892        8.5579719213       -4.5360403260
 H       -14.2376081546       12.0226945994       -1.2450714151
 H       -13.4314724004       10.9132447668       -0.1554364223
 H       -14.9400928288       10.4736026606       -0.5867557477
 H       -12.2154451560       10.3220112894       -3.6504057377
 H       -11.7940526466       11.3923509455       -2.4494863724
 H       -13.1006913628       11.7214640509       -3.6186561838
 H       -13.7678752674        9.4291719916        4.4569442157
 H       -12.7285120089       10.9631528310        4.4326611340
 H       -12.3522247939        9.6617866856        5.3040503419
 H       -11.2423181752       10.7940141031        1.9509218349
 H        -9.7864938983        9.6972134707        2.7520795914
 H       -10.7175488305       11.0212816673        3.6875607758
 H       -13.5261526099        3.0834439229        2.0548273382
 H       -13.4800734331        2.4343069520        3.5825010830
 H       -12.4777804428        1.7084258377        2.3963858779
 H       -10.5675775194        2.1387401328        4.0935487428
 H       -10.9847150749        3.6350286563        5.1328042552
 H        -9.7596292346        3.5830120889        3.8511323407
 H        -7.4957938887        4.7903644398       -0.2361807314
 H        -6.0229872411        4.4859165299       -1.3825938362
 H        -6.8171051887        3.2101078547       -0.2320536725
 H        -8.5913516170        5.5917041316       -2.9561514559
 H        -9.1792027961        4.2174292936       -3.8217288522
 H        -7.6031265481        4.6198078336       -3.8508148618
 H        -4.4535440932       -3.8097723853       -3.7117815303
 H        -3.8465360672       -3.2888868426       -2.1492947409
 H        -3.5453233503       -2.1614025009       -3.4385143930
 H        -6.7990141947       -3.5688761468       -4.1968621708
 H        -6.0969987944       -2.1589494941       -5.0333529433
 H        -7.4363882568       -1.8216906608       -3.9132814015
 H        -6.3368946967       -4.7406886529        1.6934560542
 H        -5.9180051274       -3.5731661838        3.0101567953
 H        -5.4109646008       -3.4165416795        1.2733090730
 H        -8.5161827896       -5.1410995872        2.7882675285
 H        -9.5837426495       -3.7449756252        2.5961065116
 H        -8.3435873122       -3.7030747163        3.8552745449
 Na       -7.9432294625        0.1456922954        0.0106662945
