117

 C        -6.9527894754       -1.4777348868        4.2584732746
 C        -7.5723042168       -1.6707097310        2.9289403276
 O        -7.8416287915       -0.6095878249        2.3591866184
 C        -7.7096584466       -3.0861435889        2.2525428983
 C        -8.2748053026       -3.0866937760        0.6627123794
 O        -8.7267556352       -1.9861264657        0.2081795683
 C        -8.1951436852       -4.2841447879       -0.2323939395
 C        -8.0374918982       -3.9089508868       -1.6795475246
 C        -6.5336858381       -3.2252860616       -1.7684507586
 O        -5.7986319128       -3.4151246221       -0.8379245765
 C        -5.9026246688       -2.2970464967       -2.9889655304
 C        -5.8067801948       -0.8272760757       -2.2573963073
 O        -5.9483566233       -0.6037139686       -1.0937927730
 C        -5.8446150429        0.2850775040       -3.3448386833
 C        -6.0016284202        1.7527509114       -2.8739012592
 C        -7.5244185658        1.9796225300       -2.6645694545
 O        -8.2953923102        1.1207506668       -3.0675163102
 C        -8.0082539450        3.2587207281       -2.1228804972
 C        -9.3151427294        2.8599255337       -1.1710403901
 O        -9.5468868458        1.7969104675       -0.6867955288
 C       -10.0816528569        4.0297162922       -0.8346064730
 C       -11.0922733156        3.7561307518        0.1674594943
 C       -10.5940383356        4.0077494259        1.5327115828
 O        -9.5984478542        4.6496084489        1.6971139079
 C       -11.4897840179        3.5710709582        2.8394138934
 C       -12.1127368149        5.1404173990        3.2863074619
 O       -12.8172080438        5.6397915406        2.4690518849
 C       -11.6760818635        5.7364436371        4.5779920467
 C       -12.2399539663        7.1744765974        4.6409175019
 C       -11.3337898509        7.9897917582        3.8418389328
 O       -10.1584713847        7.7449750063        3.6640928257
 C       -12.1049691607        9.3202990345        3.1174542538
 C       -12.9546793179        8.8400082438        1.9594240051
 O       -14.1087734722        8.8792063056        1.9663629332
 C       -12.1514390372        8.2220494616        0.7335371282
 C       -13.2480943428        8.0609111659       -0.4145365658
 C       -12.6305302921        8.7101459383       -1.6709002816
 O       -11.7566705701        8.1553648072       -2.3232258198
 C       -13.4963557948       10.0551823371       -2.2299537147
 C       -14.7490716093        9.5286721751       -2.9853023200
 O       -15.7873772170        9.5226482793       -2.3953290195
 C       -14.6841143685        9.0224248980       -4.3909815452
 C       -13.9504320183       10.9337032395       -0.9064872350
 C       -12.7014325758       10.9598307849       -3.2025031204
 C       -13.0122970029        9.9804715242        4.1692782653
 C       -10.9375545231       10.2417452372        2.6927352308
 C       -12.6765091438        2.6710049273        2.5030074322
 C       -10.5692381531        2.7623878374        3.8294319372
 C        -6.9869692734        3.9655059984       -1.1863073094
 C        -8.2553529284        4.3291050389       -3.2758170308
 C        -4.4628905306       -2.7791198150       -3.2144759727
 C        -6.6061117790       -2.2667599113       -4.3448678333
 C        -6.3122621617       -3.7174176970        2.3021840203
 C        -8.6777062707       -3.9949914573        3.1189664396
 H        -6.5169110955       -0.4959990310        4.2623119706
 H        -6.1307192069       -2.2291810937        4.3713574670
 H        -7.5336135540       -1.3931530299        5.1794900301
 H        -9.0452031167       -4.9776254308       -0.0869643602
 H        -7.3530077336       -5.0450078459        0.0488793366
 H        -8.7196365301       -3.1140178034       -2.0674364164
 H        -8.1132559193       -4.8629896819       -2.2634632886
 H        -6.6397498105        0.1191454905       -4.1035498541
 H        -4.8335860305        0.2563916766       -3.8030607690
 H        -5.6481867062        2.3091928664       -3.7633042050
 H        -5.2807456404        1.9971543393       -2.0949160754
 H       -10.5135305609        4.4089649005       -1.7646885094
 H        -9.2972101434        4.7433033811       -0.4207272775
 H       -11.4796715341        2.7940398662       -0.1062512845
 H       -12.0078468279        4.2633896437        0.0999536780
 H       -10.5457708664        5.6651353415        4.6659269300
 H       -12.0274458635        5.1986797150        5.4094207673
 H       -12.3434902051        7.5067656413        5.6788175999
 H       -13.2783594645        7.1733460380        4.2785016920
 H       -11.6434242202        7.2537882856        0.9251873486
 H       -11.3256279675        8.8731810238        0.4990044311
 H       -14.2122081927        8.5245144356       -0.1714066329
 H       -13.2847493342        6.9112599660       -0.5226878568
 H       -14.6887803339        9.8956913126       -5.0314972711
 H       -15.5174993655        8.3932313821       -4.7086214197
 H       -13.7456162957        8.5031454454       -4.6543233096
 H       -14.0927402570       11.8974741006       -1.3059059884
 H       -13.1223818810       10.9187371184       -0.1661242380
 H       -14.7804929543       10.4355883984       -0.2947320010
 H       -11.9821324869       10.5104627042       -3.9090874050
 H       -12.0111366990       11.5937276912       -2.6425294110
 H       -13.3148572902       11.6323646462       -3.8468648544
 H       -13.9169565499        9.4352736747        4.4547189084
 H       -13.3217457269       10.8872312887        3.7423390533
 H       -12.4920726371       10.4885548877        5.0514911849
 H       -11.2292329368       10.8784390697        1.9080909942
 H       -10.1606096192        9.5622474524        2.5806093319
 H       -10.6228895391       10.8875363459        3.4730850919
 H       -13.3883976061        3.0774161502        1.7312350804
 H       -13.2431928190        2.6174576744        3.4660839483
 H       -12.3906405813        1.6300700893        2.2275977073
 H        -9.8321605153        2.2115797911        3.1450836392
 H       -11.1433934481        2.1134532210        4.3171477913
 H        -9.9993456531        3.3423722711        4.6053783177
 H        -7.1874047340        4.9431317044       -1.0043475073
 H        -6.0233475004        3.8335845224       -1.6311000136
 H        -6.8870833902        3.5189610966       -0.1939778100
 H        -8.9253327393        5.1334945223       -2.8681531974
 H        -8.8304460661        3.9617878626       -4.1289493805
 H        -7.4410411467        4.9288466361       -3.7438843022
 H        -4.3425939505       -3.3080594329       -4.1649635278
 H        -4.1367177930       -3.3120486759       -2.3775369688
 H        -3.8908643219       -1.8423324019       -3.1547867399
 H        -6.5400769918       -3.1953864287       -4.8061614634
 H        -5.9557726226       -1.5803552556       -4.9955962713
 H        -7.6377804505       -1.7948405523       -4.0861330703
 H        -6.1221528785       -4.4937978554        1.5257434554
 H        -6.1343282322       -3.9825639562        3.3822549792
 H        -5.5713418619       -2.9533545347        1.9891535283
 H        -8.6973104419       -4.9779797636        2.7091100844
 H        -9.7339190695       -3.6328742607        3.0993616404
 H        -8.2122605602       -4.2207293048        4.1226399328
 Na       -7.8905795850        0.1128459571       -0.1311141795
