117

 C       -11.1259312260        8.8353069108       -2.3437948064
 C        -9.9597650994        9.6450474912       -2.6951978717
 O        -9.5675018528       10.6252904970       -2.1724959458
 C        -9.1209152409        9.0778698485       -4.0235790526
 C        -8.0812963462        7.9672323275       -3.4397683450
 O        -8.2103851223        6.8455355846       -3.8615292230
 C        -7.0314525860        8.2524351476       -2.3699654456
 C        -5.9978249129        7.1792073745       -2.1615296718
 C        -6.6363275792        5.9330708079       -1.7748688406
 O        -7.7549654687        5.7882095512       -1.3026897245
 C        -5.7852253297        4.6077906401       -1.9155924530
 C        -5.5464110099        3.9251827970       -0.4740604407
 O        -4.4102225082        3.7073589773       -0.1429459109
 C        -6.7211194410        3.3237023751        0.3232867905
 C        -6.4666323095        3.1994084499        1.8554044004
 C        -6.9348846461        1.9237567195        2.5597091025
 O        -7.6766013241        1.1131760972        2.0377774335
 C        -6.7851431159        1.8067141465        4.1202507293
 C        -7.5866604614        2.9758940828        4.8263327801
 O        -7.1287711486        4.1042285027        4.8589521260
 C        -8.9274941132        2.6841764740        5.4543431091
 C       -10.0933733218        3.7462505908        4.9780563431
 C       -10.2442881856        3.8134786750        3.5230945022
 O        -9.4204747919        3.2069332942        2.7922768304
 C       -11.5761766292        4.3868888085        2.9567632950
 C       -12.3914053764        3.2548109676        2.3636387039
 O       -11.8767419910        2.3231612655        1.7479567231
 C       -13.9225023527        3.3623140710        2.3288649205
 C       -14.4736151828        2.6624632932        1.0678692667
 C       -14.6766426516        3.5656433631       -0.0988833727
 O       -14.2252167415        4.7522948877       -0.0061779083
 C       -15.1013400839        2.9714888877       -1.5390690905
 C       -13.9722982769        1.8653811895       -1.7975730146
 O       -14.1513187218        0.7707050126       -1.3411623904
 C       -12.6744688425        2.1447077278       -2.7224024421
 C       -11.8594484112        0.8725734368       -2.8036859082
 C       -10.8566125836        0.7092086164       -1.6719813231
 O       -10.6592205519        1.7105505487       -0.9767954179
 C        -9.9912149388       -0.6467833496       -1.4692743062
 C       -10.4284419623       -1.2404427669       -0.1347324419
 O       -10.1636817480       -0.6732378179        0.8865351985
 C       -11.1184958076       -2.6378645684       -0.0885890272
 C       -10.2545187327       -1.6137482720       -2.6846781933
 C        -8.5090930172       -0.2272923206       -1.3231015305
 C       -16.5107107055        2.2932331986       -1.4165975842
 C       -15.1743694054        4.0219138490       -2.5999055931
 C       -12.3747121273        5.1172634056        4.1181175682
 C       -11.3092273875        5.3462704154        1.7321367540
 C        -7.2535788803        0.4423943166        4.4889339551
 C        -5.2920399715        2.0470869038        4.6055739484
 C        -6.5216507438        3.5086528511       -2.7248109820
 C        -4.4338776807        4.8592702224       -2.5124003665
 C       -10.0398404986        8.3953979572       -5.0409726570
 C        -8.3948999927       10.4016516787       -4.6217550347
 H       -10.9173879351        7.7511419268       -2.5266185717
 H       -11.9423620602        9.2898509269       -2.8752153552
 H       -11.4542274550        8.8359413808       -1.2966284726
 H        -7.4551563147        8.4665101243       -1.3706766898
 H        -6.5564301149        9.2728259867       -2.5948423369
 H        -5.3871918502        7.5144411974       -1.3784143444
 H        -5.4102709965        7.0204172397       -3.0596320223
 H        -7.0485788682        2.3287378857       -0.0345584816
 H        -7.5842229450        3.9596704603        0.1858845028
 H        -6.9399907997        3.9870438490        2.4047215267
 H        -5.3499854715        3.2212748475        1.8934554039
 H        -8.8222262824        2.7330431652        6.5732859841
 H        -9.3033292802        1.7003256899        5.3366104556
 H        -9.8905837547        4.6274758089        5.5408423027
 H       -11.1321826069        3.4458341688        5.3107565845
 H       -14.2663214921        4.4061240855        2.2695431813
 H       -14.3104496229        2.8564694201        3.2271929980
 H       -15.3689843841        2.1263929735        1.2655830972
 H       -13.7622637593        1.9166188615        0.8267309106
 H       -12.1004453057        3.0583176411       -2.4342332711
 H       -12.9934601603        2.3597425199       -3.7235710996
 H       -11.2607901190        0.8588190150       -3.7262635598
 H       -12.5776544147        0.1073117899       -3.0031930653
 H       -11.4985860943       -2.8154856114        0.8670945918
 H       -10.5791747473       -3.5822854465       -0.2679162811
 H       -11.9649507379       -2.5623795090       -0.7654580296
 H       -10.0550877409       -1.1191836975       -3.5531120651
 H       -11.3425652253       -1.7819378137       -2.6942798296
 H        -9.7168169429       -2.5443678442       -2.4944248791
 H        -8.2759172538        0.6337656774       -0.6062528205
 H        -7.9750080178       -0.1472819756       -2.2456490637
 H        -8.0939810702       -1.1035866469       -0.9160621111
 H       -16.6143238180        1.5395873491       -0.5580323254
 H       -16.7159360903        1.7784995697       -2.3518666581
 H       -17.2423054577        3.1189031859       -1.3186931609
 H       -15.4018962853        3.5888438782       -3.5562519107
 H       -14.1975738468        4.6587762687       -2.6934272407
 H       -15.9249335613        4.8243579725       -2.4671634877
 H       -11.7243131796        5.9124021716        4.4165401032
 H       -12.5488909756        4.5629365934        5.0130079629
 H       -13.3512967684        5.3702201687        3.7056330568
 H       -10.7239991721        6.2084200656        1.9954137037
 H       -12.2181744000        5.6930313438        1.2192025765
 H       -10.8304586055        4.7400082534        0.9416642846
 H        -7.3558814184        0.2955606548        5.5561015521
 H        -6.5084734028       -0.2944796261        4.0570004631
 H        -8.1950413343        0.3027797007        4.0666620958
 H        -4.6192804228        1.1791285412        4.5530848305
 H        -5.2573222410        2.4358913629        5.6113026029
 H        -4.7713259290        2.7248248486        4.0252292582
 H        -7.5639259133        3.3815114937       -2.6292993030
 H        -6.1232530653        2.4943273873       -2.4832002195
 H        -6.3717092777        3.6846765933       -3.7667481548
 H        -4.6098163549        4.9577308417       -3.5747077150
 H        -3.7803418451        3.9818148108       -2.4215257016
 H        -3.9888991776        5.6909732794       -1.9825993103
 H        -9.5153830516        8.0928123226       -5.9309370643
 H       -10.8129553422        9.0904772911       -5.3936888397
 H       -10.4138654300        7.5574077325       -4.4942249331
 H        -7.4859893806       10.6857696819       -4.0810818359
 H        -9.0684570692       11.2757541732       -4.6291952766
 H        -8.1139063668       10.3014926730       -5.6762413293
 Na       -9.6058494432        1.6354163702        1.0381276769
