117

 C        -7.2741509462       -0.4610740950        4.2539506236
 C        -7.3842587566       -1.0479149763        2.8562658825
 O        -7.0499931463       -0.3024187799        1.8977616256
 C        -7.7895180503       -2.6398927042        2.8017610244
 C        -8.1437245185       -2.9644629422        1.2596999074
 O        -8.9756537524       -2.3742302643        0.6737101817
 C        -7.7423836214       -4.3683071359        0.6881518031
 C        -8.0318972551       -4.2762678059       -0.9376450370
 C        -6.6728973804       -4.2646269043       -1.7133677121
 O        -5.7856667513       -5.0184265633       -1.4502753266
 C        -6.4907423383       -3.1566236882       -2.9059700005
 C        -6.7147212835       -1.6931598994       -2.5347130033
 O        -6.7205187705       -1.4758096171       -1.3138952381
 C        -6.4396141156       -0.5180469052       -3.4168984694
 C        -5.9775383880        0.6802165811       -2.4828467254
 C        -7.3331259629        1.3198886146       -2.1560664407
 O        -8.2948794190        0.5582685008       -2.1327233731
 C        -7.6896094953        2.8885879144       -2.1997261230
 C        -8.9389348627        3.1483117391       -1.1819472364
 O        -9.2265558654        2.2525091358       -0.3950047562
 C        -9.6140133384        4.5657629344       -1.0145253097
 C       -10.6885233616        4.6155524081        0.0449629124
 C       -10.0380302718        4.4240641886        1.3963300047
 O        -8.8709718385        4.7294484293        1.6327168637
 C       -10.8574276602        4.0191247456        2.6654739011
 C       -11.7056029678        5.3078550691        2.9167817846
 O       -12.4627408843        5.4379134907        1.9675388684
 C       -11.5755665126        6.2603124785        4.1216129693
 C       -12.4780657471        7.5336921023        4.0587786361
 C       -11.7623019939        8.7731475774        3.4790942751
 O       -10.6051290040        8.8898006237        3.3649638159
 C       -12.6845021566        9.8810105979        3.1095232058
 C       -13.4166436772        9.3951299794        1.8269789796
 O       -14.5944129333        9.1136626238        1.7327463482
 C       -12.3388516619        8.8419850962        0.7202109361
 C       -13.1237144483        8.1314604730       -0.4236083947
 C       -12.5636690702        8.5164106269       -1.8642360002
 O       -12.1383733872        7.6800531751       -2.6227403892
 C       -12.9541016957        9.9481442173       -2.4382681613
 C       -14.6520164689        9.7760262282       -2.5477810778
 O       -15.3488643722       10.6270159315       -2.0501874645
 C       -15.0849177774        8.6743828251       -3.4510606757
 C       -12.5190162306       11.1373800165       -1.5903572200
 C       -12.3805360772       10.2920830829       -3.8735085850
 C       -13.6315797543       10.3174788918        4.1830670832
 C       -11.6409289826       11.0235728749        2.6117433642
 C       -11.7821036659        2.9078924207        2.2477021494
 C        -9.9040973336        3.5665627324        3.7537163434
 C        -6.4080393573        3.5650965258       -1.5325901097
 C        -7.9727829988        3.2694579727       -3.7276936998
 C        -5.0521292014       -3.3014921910       -3.3466943216
 C        -7.6573243088       -3.5193534442       -3.9844397170
 C        -6.7406904102       -3.7197342088        3.2359215996
 C        -9.1115993375       -2.8506555495        3.4070297776
 H        -7.6257535343       -1.2518895646        4.9367341938
 H        -7.9677995859        0.3720683401        4.3554509804
 H        -6.2201370140       -0.2185183238        4.5806803158
 H        -8.5797415629       -5.0671722089        1.1551590466
 H        -6.7410081097       -4.6956363690        0.7956698114
 H        -8.6353414811       -3.3990089710       -1.1165742069
 H        -8.5998540516       -5.1943322846       -1.1675673385
 H        -7.2537244205       -0.1061911399       -3.9828754673
 H        -5.6534644961       -0.8416791144       -4.1348975486
 H        -5.1634758992        1.3548111305       -2.7948397377
 H        -5.6139379214        0.1785779971       -1.6078902217
 H        -9.8897470858        5.0169158018       -2.0352715769
 H        -8.8222529382        5.1405742077       -0.6614330894
 H       -11.2759480800        3.7141899021       -0.1930680790
 H       -11.1683321447        5.5337665403        0.2188090998
 H       -10.4793700083        6.4522774560        4.2655502356
 H       -11.9849709566        5.6713392014        4.9824125874
 H       -12.8555173150        7.8097915647        5.0437599602
 H       -13.3505849447        7.1914513339        3.4922827698
 H       -11.4303332328        8.1890680916        0.9572245096
 H       -11.9807495957        9.8094717285        0.3239785819
 H       -14.2953838392        8.1758210096       -0.3435193117
 H       -13.0139208835        7.0737669225       -0.4021862070
 H       -16.2270346419        8.7636581896       -3.6976741138
 H       -14.8167759152        7.6868477896       -3.0661023036
 H       -14.6149652416        8.9751856523       -4.3974301653
 H       -13.0076460237       12.0559857123       -2.0226371306
 H       -11.4754742104       11.2767131761       -1.5388207966
 H       -13.0973510753       11.0114108400       -0.7428386729
 H       -12.3295619811        9.4140891550       -4.4948171315
 H       -11.3521547431       10.7575665243       -3.8435257027
 H       -12.9705776775       11.0686001190       -4.3762289604
 H       -14.5840333292        9.7642481544        4.2832587286
 H       -13.9324886048       11.3605225012        4.1329675863
 H       -13.2340746674       10.0462502676        5.1471782261
 H       -12.0518304270       11.9772442861        2.3217039679
 H       -11.1427776945       10.7805330081        1.6056687370
 H       -10.9483146264       11.1065021736        3.4699192902
 H       -12.5882680610        3.1597933246        1.5777947621
 H       -12.3572053771        2.6701956393        3.2351399489
 H       -11.3774328019        2.0298697696        1.9615328834
 H        -9.4710161109        2.5991896716        3.5282650368
 H       -10.3810651941        3.3704096038        4.6349555547
 H        -9.0860291579        4.3432722114        3.9378039902
 H        -6.4031216178        4.5759613467       -1.0609194239
 H        -5.5712745058        3.7145718149       -2.2682555726
 H        -5.9982323702        2.9427881287       -0.7771038919
 H        -7.7546103748        4.3313817378       -3.8510661959
 H        -9.0427411824        3.0809738087       -4.0123989530
 H        -7.3698621667        2.6671337045       -4.4214557763
 H        -4.4187428074       -2.4808079005       -3.3506680547
 H        -5.0711389218       -3.4508631266       -4.4668224004
 H        -4.6342495682       -4.1801146490       -2.8962307671
 H        -7.6125167930       -4.5997158123       -4.1113943559
 H        -7.3929527325       -2.9132817666       -4.8701552816
 H        -8.7230511084       -3.2335856150       -3.6492918589
 H        -6.1449285621       -3.8696903140        2.3309766387
 H        -7.2915784593       -4.6608268141        3.3715754981
 H        -6.2582163954       -3.4521764357        4.1972178468
 H        -9.5252595284       -3.8598826506        3.2004241361
 H        -9.8801176190       -2.1256477174        3.0374321940
 H        -9.0632230990       -2.5183255802        4.4448761838
 Na       -8.2501058248       -0.1731532922       -0.0684307193
