117

 C        -6.7154946068       -0.2006688514        4.0518979363
 C        -7.4372423779       -0.8566712943        2.7788469926
 O        -7.6967466201       -0.2049984463        1.8051911251
 C        -8.0210859205       -2.3484850644        2.9186110450
 C        -8.3729282934       -2.8693874765        1.5444403777
 O        -9.2841411033       -2.4140728016        0.8993395180
 C        -7.4138458940       -3.8557395620        0.8694520189
 C        -7.9510651173       -4.3743960128       -0.4454455966
 C        -6.9546334449       -4.6581626914       -1.5048929048
 O        -6.3616731723       -5.7349254986       -1.4874691195
 C        -6.6364005455       -3.7586634950       -2.7648994157
 C        -6.5649439436       -2.1737783903       -2.3666141466
 O        -6.9483063543       -1.7907802761       -1.2827082909
 C        -5.9983741120       -1.2346674974       -3.4590719783
 C        -6.3017934047        0.3189150260       -3.2370533289
 C        -7.6526897929        0.8526164004       -2.7654993210
 O        -8.6751536483        0.2066444975       -2.8048745312
 C        -7.5656397640        2.4252868980       -2.3826143459
 C        -8.4694567286        2.9529480326       -1.1826892602
 O        -8.6324121292        2.2359821201       -0.1954267723
 C        -9.0939992914        4.4222713076       -1.1110703923
 C       -10.1997021240        4.5237970528        0.0235469267
 C        -9.5521781774        4.6886229943        1.5148718912
 O        -8.4179724449        5.0168774399        1.7648373371
 C       -10.5113993186        4.4876469037        2.7245253402
 C       -11.5706842444        5.6631793747        2.9365598908
 O       -12.3124777937        5.9855280173        2.0350686180
 C       -11.5788526481        6.2891171103        4.2805087516
 C       -12.4667240516        7.6011095849        4.2027143051
 C       -11.8506445440        8.8539320943        3.4999389592
 O       -10.6048916446        9.0023197206        3.5752762841
 C       -12.8117916669       10.0681560118        3.1218815266
 C       -13.5299815260        9.6345268982        1.6701915455
 O       -14.7472105255        9.7430074022        1.5934032435
 C       -12.5720147072        9.0310934309        0.6405186180
 C       -13.4238703707        8.6155169854       -0.6391576451
 C       -12.7685258290        8.6138726720       -1.9522693734
 O       -11.8241909675        7.8471970215       -2.0687057571
 C       -12.9972811888        9.6716430846       -2.9593518570
 C       -14.5859604400       10.0858861386       -2.8311409595
 O       -14.8958720563       11.1080381063       -2.2784245495
 C       -15.5393307847        9.0865383821       -3.4096946296
 C       -12.1178982816       10.9424920943       -2.6046421585
 C       -12.6237132860        9.2432699711       -4.4265332016
 C       -13.9644538777       10.1977807875        4.1832074683
 C       -12.2031649205       11.4664336726        3.0898942867
 C       -11.3261629519        3.1135700895        2.7887861050
 C        -9.6466347280        4.3637193483        3.9997803429
 C        -6.1572329632        2.6111726795       -1.6847277729
 C        -7.6805889931        3.4647278076       -3.5782400763
 C        -5.3553299601       -4.2708831894       -3.2919992360
 C        -7.7548166211       -3.9552756053       -3.7080149288
 C        -7.0329474890       -3.3048613062        3.7553702332
 C        -9.2991421249       -2.1648642638        3.7308674616
 H        -7.4245528378       -0.3143028624        4.8656069727
 H        -6.4237519111        0.8655139327        3.8554749239
 H        -5.8403223734       -0.8370156284        4.2079481614
 H        -7.1881572558       -4.7693017084        1.4612179137
 H        -6.4872425527       -3.1809751074        0.5392623293
 H        -8.8450784402       -3.7119340909       -0.7216050906
 H        -8.4503550211       -5.2879851513       -0.2091523442
 H        -6.2385412083       -1.5301995155       -4.5039940698
 H        -4.9045926230       -1.3061770571       -3.4736711229
 H        -6.2813589230        0.7015597990       -4.2352329358
 H        -5.4163064513        0.6932176598       -2.6853058659
 H        -9.5017281894        4.8789848575       -1.9929215937
 H        -8.4024771796        5.2607256793       -0.8374238647
 H       -10.8651694046        3.6114604059        0.0986028470
 H       -10.7381489122        5.4882958559       -0.2761675721
 H       -10.6248993827        6.6493089699        4.6302770897
 H       -11.9156490872        5.5530147667        5.1260244368
 H       -12.5020234543        7.9865135273        5.2417084061
 H       -13.5059109371        7.4424563775        3.9241890701
 H       -12.0401618636        8.2024456141        1.0993647756
 H       -11.8403523578        9.8900729953        0.5187032006
 H       -14.1864766958        9.3817057685       -0.7662035667
 H       -13.9637694243        7.7243487299       -0.1023951389
 H       -15.4884709436        8.2442464856       -2.7309446600
 H       -15.3070158273        8.7157503795       -4.4946416950
 H       -16.5885013112        9.5300302715       -3.4602331656
 H       -12.3279054623       11.6023139517       -3.3704923499
 H       -11.0580617107       10.6226614760       -2.6830028423
 H       -12.4508456915       11.3122860864       -1.6209690782
 H       -13.1120685675        8.3582911472       -4.7959733170
 H       -11.6108518392        8.9109757266       -4.4658220156
 H       -12.9265047994       10.0013238536       -5.1491313020
 H       -13.4890735216       10.2177053435        5.1701168773
 H       -14.7791440602        9.4892751228        4.0813422573
 H       -14.4431585699       11.2606933202        4.0899496495
 H       -12.8277131431       12.0790938318        2.3328517114
 H       -11.1888541367       11.5440759585        2.7155505206
 H       -12.2722270228       12.0924233765        4.0184645265
 H       -12.2786144370        3.2051722855        2.2492162397
 H       -11.6131310324        2.9061229524        3.7435592587
 H       -10.8713104763        2.1259316655        2.3903910157
 H        -8.7446399084        3.8716872529        3.7115757819
 H       -10.2303628335        3.8162441295        4.8825265900
 H        -9.3335614730        5.1892692805        4.4972709227
 H        -6.1750920558        3.5363034019       -1.1541360798
 H        -5.4333479263        2.7385892708       -2.4297477506
 H        -5.9251376678        2.0494746542       -0.7262522169
 H        -7.3331432638        4.4073390780       -3.1708211092
 H        -8.6582248675        3.4046768802       -3.9763169189
 H        -6.9985710523        3.2080439465       -4.4159678625
 H        -4.7058731301       -4.3834335814       -2.3728363934
 H        -4.7572089720       -3.6459387693       -3.9052387407
 H        -5.3019321713       -5.1923402575       -3.9251376687
 H        -7.9272362087       -5.0481480556       -4.0044148326
 H        -7.4215806009       -3.5151603108       -4.6474789201
 H        -8.5689989705       -3.4575960030       -3.4042507363
 H        -5.9541791650       -3.0336658940        3.5807274967
 H        -7.3927850779       -4.3492243878        3.6201939069
 H        -7.1460741118       -3.0626120891        4.8006772681
 H        -9.8603359321       -3.0079260106        4.1190703231
 H       -10.0296592042       -1.6093801364        3.0906537498
 H        -9.0955263669       -1.4872202481        4.6409162389
 Na       -8.4968350088       -0.4451617736       -0.2397282240
