117

 C        -6.3407671705       -0.1803974983        3.8246101530
 C        -7.4917391773       -0.6832999823        2.8226551737
 O        -7.8910583959        0.0663605850        1.9331387282
 C        -8.0644929043       -2.1715333618        3.0105785580
 C        -8.4929255946       -2.7396120304        1.5912860317
 O        -9.5361952318       -2.4018525931        1.0318751202
 C        -7.4174805737       -3.5003098698        0.8468895298
 C        -8.0629999946       -4.2070618208       -0.4309895474
 C        -7.0254583231       -4.7842123630       -1.4231929852
 O        -6.4728484479       -5.8363022092       -1.2160121526
 C        -6.6966910737       -3.8848924539       -2.6481741561
 C        -6.7168101286       -2.3674275580       -2.5109371397
 O        -6.8228863337       -1.7988924717       -1.4129076320
 C        -6.5433750252       -1.3871760202       -3.7262288778
 C        -6.2195816009        0.0086488963       -3.2137722726
 C        -7.4555345333        0.7161422302       -2.6431384829
 O        -8.5786082113        0.2466784708       -2.5387495637
 C        -7.3362657108        2.2216309763       -2.3459960015
 C        -8.4528201036        2.6080382784       -1.1193875028
 O        -8.8069091999        1.8286598890       -0.2826277622
 C        -8.8532088553        4.0331709918       -0.9672389742
 C       -10.0772512199        4.4069100550       -0.0510113842
 C        -9.4014490743        4.6311031658        1.4709372353
 O        -8.2241852401        4.8647972617        1.4966470582
 C       -10.2869910007        4.6487816438        2.8338157874
 C       -11.4598757449        5.7425088033        3.0349178531
 O       -12.1330875631        6.0425252262        2.0898721473
 C       -11.5596992417        6.5840182986        4.3648643049
 C       -12.6220780017        7.6567276076        4.3236878411
 C       -11.9300879200        8.9662530089        3.7603553350
 O       -10.7848011482        9.0250284257        3.5186018997
 C       -12.9969010300       10.1246876316        3.4522329994
 C       -13.6641160786        9.6708076624        1.8885541530
 O       -14.8064506590        9.9863725076        1.6120688747
 C       -12.6388419931        9.1544994032        0.6255721863
 C       -13.4901986419        8.9629673903       -0.6423803084
 C       -12.7277792459        8.6564172082       -1.9056030012
 O       -11.7728603020        7.9591056702       -1.8319539695
 C       -13.0061714714        9.5359726900       -3.1160486984
 C       -14.4208707787       10.1576136482       -3.0756075318
 O       -14.6848584098       11.2791220875       -2.6659788432
 C       -15.6443078595        9.2899506285       -3.4788052911
 C       -11.8929242451       10.8219485685       -3.0455338580
 C       -12.9138948363        8.7384395411       -4.5247902305
 C       -14.2309151309       10.2378904745        4.3068770867
 C       -12.2255033530       11.3345728528        2.8795922499
 C       -11.2023476781        3.4532517458        2.7850231875
 C        -9.1880846899        4.5746514888        3.9736021869
 C        -6.0000141926        2.5021471057       -1.5754528424
 C        -7.3898747084        2.8636743422       -3.7656855511
 C        -5.4161349157       -4.2341909825       -3.2934615404
 C        -7.9072264111       -4.0249742424       -3.6344348994
 C        -7.1781154695       -3.1740674413        3.9295000131
 C        -9.5062908404       -1.9575773959        3.7635867367
 H        -6.7498025135       -0.2363611376        4.8457679591
 H        -6.0861966670        0.8319786241        3.5430770136
 H        -5.4077793006       -0.7551511337        3.6112011801
 H        -7.0837734772       -4.3535633536        1.4309300791
 H        -6.6966678819       -2.8286881055        0.5248952061
 H        -8.7138811400       -3.5013646564       -0.9234477267
 H        -8.7984289343       -4.9753356985       -0.0259574185
 H        -7.4611904546       -1.2999721377       -4.2968094285
 H        -5.8350457587       -1.7894186074       -4.4849024123
 H        -5.7235160631        0.6518984556       -3.9965222930
 H        -5.5428138828       -0.1701124007       -2.4030067181
 H        -8.8881452087        4.5380217866       -1.9846987730
 H        -8.0170450997        4.6124206624       -0.5808583061
 H       -10.7992165297        3.5849614048       -0.0187192995
 H       -10.5335803176        5.4040409211       -0.0327238359
 H       -10.5611197360        7.0694980690        4.4470832794
 H       -11.6351981899        6.0429340369        5.2224640727
 H       -13.1269115694        7.8451093835        5.2712330408
 H       -13.3924763338        7.2166002036        3.6572403255
 H       -12.0994786364        8.2372206965        0.9383207550
 H       -11.8950245405        9.8770738045        0.3688697571
 H       -14.1673383180        9.8167306833       -0.7016628135
 H       -14.0459594846        8.1629602417       -0.3373834413
 H       -15.4573552688        8.2014049185       -3.6503846288
 H       -16.0130994081        9.7592356480       -4.3134904947
 H       -16.4566043245        9.4546493170       -2.8344171937
 H       -12.5115283700       11.7153166228       -3.4793441381
 H       -11.0083908404       10.6327289008       -3.6759078343
 H       -11.6763919201       10.9419446345       -1.9626894990
 H       -13.2440540228        7.6949091375       -4.5990527058
 H       -11.8796570538        8.6499847750       -4.9271749126
 H       -13.6159183540        9.2464244427       -5.1836549272
 H       -14.1645704985       11.1037692370        5.0010187508
 H       -14.4897988751        9.3735993162        4.8576007729
 H       -15.0545992464       10.3721463293        3.6014081242
 H       -12.8568000578       12.1267188382        2.7981374664
 H       -11.5698992366       11.2796697070        2.0756034722
 H       -11.5180937234       11.6212621342        3.6331786143
 H       -11.6675028171        3.3114469000        1.7799813877
 H       -12.0693765248        3.4292951516        3.5722298242
 H       -10.6981080637        2.5096869732        2.9683244868
 H        -8.8473821769        3.5498903009        4.2706076577
 H        -9.4463095358        5.1520108237        4.7635929362
 H        -8.1745650051        5.0739761452        3.6500220412
 H        -6.0897232508        3.4610377609       -1.0312991642
 H        -5.0692816870        2.4436787888       -2.1664409249
 H        -5.9361484434        1.8032116884       -0.7690545044
 H        -6.6604020168        3.6756604958       -3.6070502524
 H        -8.4547649096        3.1599694064       -4.0291398595
 H        -7.0062910440        2.2325648622       -4.5915233231
 H        -4.5132236782       -3.7114721814       -3.0192328212
 H        -5.5607379125       -4.1588213900       -4.3887713850
 H        -5.1205245247       -5.3111795448       -3.2989120925
 H        -8.1264303817       -4.9435413003       -3.9640742350
 H        -7.5502284590       -3.5717735911       -4.6275528666
 H        -8.8259033739       -3.4366686156       -3.2964531286
 H        -6.2943326639       -3.4695615106        3.4178539061
 H        -7.8109681405       -3.9298703561        4.3737596991
 H        -6.6577748398       -2.5499136807        4.6545496121
 H       -10.0587024007       -2.8630798447        3.9381163544
 H       -10.1543463452       -1.3094930379        3.1555125022
 H        -9.4490068477       -1.5934413811        4.7873483713
 Na       -8.4901926296       -0.4519125294       -0.3333017248
