117

 C        -6.2184652251       -0.1069400038        3.6716105038
 C        -7.4565098880       -0.6765450216        2.9098654343
 O        -7.8892490284        0.0757723024        2.0217557863
 C        -8.1255604428       -2.0486938955        3.0618495780
 C        -8.5322853147       -2.6061808547        1.5510712597
 O        -9.5758843540       -2.2470341735        1.1334973580
 C        -7.5332475112       -3.5493747711        0.9734688755
 C        -8.0434748107       -4.0853209359       -0.3513553749
 C        -6.9501901951       -4.6730720934       -1.3537079831
 O        -6.5031238045       -5.7955534257       -1.1857796411
 C        -6.8666844563       -3.9243100736       -2.8887455742
 C        -6.7902688841       -2.3980437793       -2.4857659260
 O        -6.6696366191       -1.9018771621       -1.3539116347
 C        -6.7898200822       -1.4934573684       -3.6814267192
 C        -6.2210106328       -0.1992226817       -3.2661739838
 C        -7.3422222672        0.6914755324       -2.5612038808
 O        -8.4221261469        0.1977658789       -2.4977518202
 C        -7.2669084763        2.2249920407       -2.1547982950
 C        -8.5208070096        2.4549696372       -1.1389929637
 O        -8.9648257228        1.5880868727       -0.4341157768
 C        -8.8448038119        3.9049630779       -0.8916886851
 C        -9.9951519771        4.3039927643        0.0819861070
 C        -9.3311466533        4.7835746758        1.4215687484
 O        -8.1373374494        4.8089051998        1.4445767702
 C       -10.1208378035        4.7530189035        2.7427971987
 C       -11.1496495698        5.9726847196        2.8600565595
 O       -12.0186031900        6.0550141000        2.0481522001
 C       -11.4002945878        6.5586130861        4.2512847209
 C       -12.5155623971        7.5630253610        4.3209344580
 C       -12.1457729744        8.9823839033        3.6967350044
 O       -10.9376045673        9.1886108400        3.5226088071
 C       -13.1385217780       10.0410056467        3.2165843595
 C       -13.6533995999        9.7103535461        1.8758590458
 O       -14.8206026551        9.9670093380        1.6098111071
 C       -12.7995740743        9.1381045283        0.8365139357
 C       -13.5360165283        9.0771926359       -0.5680241444
 C       -12.6428192520        8.8056938326       -1.7521532511
 O       -11.7828531691        7.9049344608       -1.8221339266
 C       -13.0817395554        9.5845863456       -3.2506683564
 C       -14.4378374538       10.2484732496       -3.2267256233
 O       -14.5171549713       11.4054355952       -2.8859912734
 C       -15.7445780123        9.3638190481       -3.4763215627
 C       -11.9477333382       10.6578947731       -3.4078697811
 C       -12.8233732493        8.5835171391       -4.3998746715
 C       -14.2270856758       10.4423975980        4.3399108360
 C       -12.2085042435       11.2881866671        3.0365536781
 C       -11.0731113300        3.4357164228        2.8165552359
 C        -9.1393621407        4.6594665504        3.9313027844
 C        -5.7927546679        2.4845561875       -1.6078616923
 C        -7.4458126528        2.8726679300       -3.5678100610
 C        -5.4251422671       -4.3189182028       -3.4038445621
 C        -8.0401367392       -4.2745397506       -3.7090402269
 C        -7.4212347555       -3.0409837282        3.8850573799
 C        -9.5140750683       -1.8732870014        3.8443534273
 H        -6.3595551579       -0.3275307698        4.6949123457
 H        -6.3471137648        0.9730806975        3.5217152710
 H        -5.2411229748       -0.3013761206        3.1782320984
 H        -7.2386589483       -4.3680797766        1.5511972389
 H        -6.7212656802       -2.9571270794        0.7053143770
 H        -8.6448728993       -3.3139883047       -0.8238637570
 H        -8.7134283884       -4.8424830603       -0.1626071365
 H        -7.7947346479       -1.3693129519       -4.0265683488
 H        -6.3254072354       -1.9872701864       -4.5327981961
 H        -5.8241654654        0.3744010882       -4.1123525080
 H        -5.3965305716       -0.5114805832       -2.6148308864
 H        -9.0313880329        4.3991401373       -1.8844495219
 H        -7.9744386095        4.4017198692       -0.6451597334
 H       -10.6055013721        3.4270110137        0.2775494925
 H       -10.6115879054        5.1211678082        0.0324757759
 H       -10.5232637432        6.9084670583        4.7700656005
 H       -11.7251895258        5.6824913717        4.8826561491
 H       -12.7474224020        7.7349855986        5.3693331532
 H       -13.3672111177        7.0053461405        3.9482180089
 H       -12.2839634214        8.2989856811        1.2909158640
 H       -12.0367062162        9.8131389109        0.4955009233
 H       -14.1330727058        9.9855111689       -0.5938564374
 H       -14.2009359146        8.1702337816       -0.6243987615
 H       -15.4365765216        8.4962695513       -3.9845453634
 H       -16.3791570022        9.9845780237       -4.0921116457
 H       -16.4059114014        9.1149286734       -2.6922514525
 H       -12.4111850416       11.4426028706       -3.8783687768
 H       -11.1654664868       10.2778335539       -4.0417006011
 H       -11.5724031169       10.9142303139       -2.3824682443
 H       -13.2712862787        7.6582863420       -4.1713580941
 H       -11.7720722468        8.3076124850       -4.5804236612
 H       -13.3951508686        8.8335418873       -5.3280603870
 H       -13.9347194003       11.3505902307        4.8803600165
 H       -14.4018337520        9.7133388703        5.0449247646
 H       -15.1862805698       10.5631048734        3.7533069954
 H       -12.8102893180       12.2331803072        3.2296910304
 H       -11.4893751895       11.5080482725        2.2969251286
 H       -11.5785200730       11.2617487485        3.9389658838
 H       -11.6442746032        3.3041412447        1.9416306094
 H       -11.6898287075        3.4736514245        3.5874696111
 H       -10.5408369333        2.4667027841        2.9484149831
 H        -9.2323283328        3.6751884877        4.3587242125
 H        -9.3721365125        5.4343832867        4.7384199676
 H        -8.1504939015        4.7502557072        3.7618677191
 H        -5.4804933257        3.5470156234       -1.4770106658
 H        -5.0667963626        1.8550068183       -2.1958334399
 H        -5.7608255441        1.9539206053       -0.5370574891
 H        -6.8770082834        3.7892359191       -3.5142046039
 H        -8.4966056893        2.9876070978       -3.7588211222
 H        -6.9810179151        2.2494262312       -4.3788481676
 H        -4.7063928134       -3.5931884410       -3.1073928123
 H        -5.3793635970       -4.5583882526       -4.3686398429
 H        -4.9578700389       -5.2628215483       -3.0127176300
 H        -8.0309278814       -5.4732637744       -3.7467864701
 H        -8.0413131737       -4.0348327915       -4.8339012688
 H        -8.9778539907       -3.9261850547       -3.2549028263
 H        -6.4515916418       -3.2144981342        3.3969105206
 H        -8.0690740255       -3.9027323417        3.9834658667
 H        -7.0916165839       -2.6473132669        4.7706066281
 H       -10.0278113707       -2.7199466573        4.0125842626
 H       -10.1368820337       -1.1710699969        3.3535930105
 H        -9.3564174818       -1.6230085758        4.8859958578
 Na       -8.6026924008       -0.4392341808       -0.2522397067
