117

 C        -6.1350749072       -0.2358220944        3.6347309375
 C        -7.3475641512       -0.6803172588        2.7742275382
 O        -7.8056911696        0.1043092960        1.9569582611
 C        -8.2006893870       -1.9718368146        3.1787660528
 C        -8.7018220568       -2.6139899041        1.6639279682
 O        -9.7781479587       -2.1826130699        1.2156479991
 C        -7.8996140468       -3.7215861130        1.0959708551
 C        -8.3685137738       -4.2192889277       -0.2498108394
 C        -7.2694471341       -4.7823468400       -1.1610844864
 O        -6.4324976040       -5.4884812219       -0.6007870006
 C        -7.0293457909       -4.2731017365       -2.6247222633
 C        -6.9132702738       -2.5911613873       -2.6086731870
 O        -6.8015363677       -1.9475267740       -1.5668447125
 C        -6.5901919277       -1.6502460417       -3.8532029430
 C        -6.5373160907       -0.1132597162       -3.6025566997
 C        -7.5131577948        0.5630078050       -2.6156912397
 O        -8.4817240055       -0.0216306239       -2.2440720862
 C        -7.3500799838        2.0791166148       -2.3151959240
 C        -8.6520516903        2.4745936997       -1.0963234286
 O        -9.1793931615        1.6475353933       -0.4435274415
 C        -8.8207473598        3.9427816126       -0.8313835332
 C        -9.8487002892        4.2500458075        0.2713155953
 C        -9.0376132306        4.6918151914        1.5803721797
 O        -7.8906520400        5.0271690395        1.5352141118
 C        -9.8339606654        4.7608763204        2.8097440639
 C       -10.8157183533        5.9983734767        2.6816329837
 O       -11.1231878715        6.2890442759        1.5729645543
 C       -11.3030143725        6.6354510451        4.0555311322
 C       -12.4458324398        7.6055962409        3.8106553496
 C       -11.9876576501        9.0708619733        3.5738998778
 O       -10.8739743506        9.4658233403        3.5082174565
 C       -13.0862420324       10.0814506732        3.1621604204
 C       -13.8087514143        9.7942461704        1.8712968697
 O       -15.0342673281        9.9986816878        1.9283902033
 C       -13.0396143000        9.2514965640        0.7128330365
 C       -13.4983611720        9.7462164691       -0.6397915235
 C       -12.7994292063        9.0330685955       -1.8206280801
 O       -11.8940082148        8.2637981700       -1.4965481950
 C       -12.9866056005        9.3754804710       -3.3883789001
 C       -14.2259386791       10.2653359271       -3.4528105368
 O       -14.2011943514       11.4880148063       -3.5448717660
 C       -15.6854971661        9.5195881143       -3.3978539638
 C       -11.7305494619       10.1113977889       -3.8910241800
 C       -13.2180955859        8.0920281829       -4.2122212582
 C       -14.2804367990       10.1004408116        4.3759912012
 C       -12.5533524730       11.4859832417        3.0067130518
 C       -10.6652585238        3.4252196825        3.0314566733
 C        -8.8760701010        4.9251647501        3.9955275247
 C        -6.0108405121        2.2475440297       -1.3322585911
 C        -7.2469382533        2.9103954380       -3.5971790992
 C        -5.7105057026       -4.7323941280       -3.2903525641
 C        -8.2202497316       -4.6476866372       -3.4631316175
 C        -7.4056631482       -2.8716959010        4.1622570166
 C        -9.4085193423       -1.3314667198        3.8277999026
 H        -6.2091752436       -0.7175551093        4.5931405347
 H        -6.3410423830        0.8221939899        3.8070947441
 H        -5.1792709060       -0.1777387890        3.0560462813
 H        -8.1063831719       -4.6158680858        1.8125657402
 H        -6.8160399072       -3.6315071293        1.0942246107
 H        -8.9221906236       -3.3165035462       -0.6672209876
 H        -9.1748418461       -4.9878031347        0.0088461084
 H        -7.2589613952       -1.8038368479       -4.7029782206
 H        -5.6420208322       -1.9875184976       -4.3654175538
 H        -6.6064134590        0.3826095577       -4.6171860769
 H        -5.5469060069        0.1529761638       -3.2512237616
 H        -9.0991396353        4.6782517717       -1.6959141004
 H        -7.7953404619        4.3380592202       -0.6219938798
 H       -10.5055494723        3.4459346908        0.7096285739
 H       -10.5110944936        5.0032581524       -0.0930602663
 H       -10.5635189137        7.0432762112        4.7912093398
 H       -11.7350886476        5.8203175595        4.5231525387
 H       -13.1326880332        7.4812473821        4.6659112128
 H       -13.0476032233        7.2399110248        2.9387473931
 H       -13.0223995999        8.1252778994        0.5093569656
 H       -11.9883118325        9.4027484019        0.8677521170
 H       -13.2599885824       10.8197150058       -0.6958125861
 H       -14.5148769356        9.6168615628       -0.6523525621
 H       -16.1873210078        9.7003606737       -4.4016728938
 H       -16.1842715226       10.0749093235       -2.6150139693
 H       -15.8019560979        8.4328504304       -3.1972779549
 H       -11.5232126162        9.7838941400       -4.9058881203
 H       -10.9581015324        9.9034419137       -3.1096342771
 H       -12.0842295025       11.2098948114       -3.7326937561
 H       -14.1914281373        7.6674261721       -4.1604079493
 H       -12.4293015563        7.3508413693       -3.9225518734
 H       -12.9059836055        8.2773871327       -5.2820131428
 H       -13.8913838659       10.0585263755        5.4226326839
 H       -14.8959266926        9.2972480403        4.2982099477
 H       -14.9433763148       10.9787058888        4.1287791229
 H       -13.1459684401       12.0753656541        2.3036874889
 H       -11.6043817499       11.5092844362        2.6823207441
 H       -12.5181759596       12.0582794197        3.9435637028
 H       -11.6756966314        3.2379570364        2.4843550305
 H       -10.7558935605        3.2034317533        4.0940582518
 H        -9.9185774392        2.5129560337        2.7513783198
 H        -9.4578270407        4.8373364216        4.9679652373
 H        -8.2805782212        5.8993884034        4.1116839892
 H        -8.1237800531        4.1548988308        4.0228398622
 H        -5.6799191984        3.1727832961       -1.0949932678
 H        -5.2042138335        1.7569081982       -1.7463487109
 H        -6.2219304307        1.5010252594       -0.5724053551
 H        -7.2175107330        3.9641491265       -3.2845191294
 H        -8.1369868337        2.7801509069       -4.2329234454
 H        -6.3064383879        2.4573238552       -4.0023506562
 H        -4.8991413895       -4.5264573919       -2.5350563571
 H        -5.5054195373       -4.5105600160       -4.2741868909
 H        -5.4409753530       -5.9067865078       -3.2462981200
 H        -8.3054443534       -5.7553198344       -3.7954022889
 H        -8.2712516266       -4.0725815047       -4.3523574777
 H        -9.1151248588       -4.4853099380       -3.0081349624
 H        -6.4100555201       -3.3602931531        3.8621396980
 H        -8.0854691767       -3.7375859389        4.4091707323
 H        -7.3161630403       -2.3016890652        5.0918249485
 H        -9.9851278939       -2.0434734554        4.3296350366
 H       -10.0034090924       -0.7925776595        3.0023063566
 H        -9.2145093598       -0.7135252965        4.7816229799
 Na       -8.6031215962       -0.6122316085       -0.2662422267
