117

 C       -11.1611843894        8.7057503834       -2.4768276138
 C       -10.0635712884        9.5053501322       -3.1068252045
 O        -9.4819422767       10.2350922217       -2.4066137567
 C        -9.3593597033        8.8288756433       -4.3813434940
 C        -8.4471116221        7.6928711768       -3.7593328534
 O        -8.5563852929        6.5023129939       -3.9914474637
 C        -7.4038521873        8.2126551311       -2.7089337920
 C        -6.3617946865        7.2418866043       -2.2272921499
 C        -6.8067891935        5.9886013014       -1.6585236553
 O        -7.7997805363        5.7658699605       -0.9935910325
 C        -5.9312046178        4.6689904309       -1.8729359051
 C        -5.5848359648        3.9485673732       -0.5680640345
 O        -4.4370131757        3.5921826767       -0.5216289893
 C        -6.5869299745        3.6329208318        0.5922576482
 C        -5.9222330419        3.1533126031        1.9226861776
 C        -6.6977056931        2.0168435473        2.5627286168
 O        -7.1122774564        1.0785733304        1.8866546660
 C        -6.6432780513        1.9947590348        4.1329110493
 C        -7.6118162410        3.2262152934        4.6597730382
 O        -7.2817626901        4.3948340272        4.5303785683
 C        -8.8782916207        3.0054985955        5.6472683169
 C       -10.0539926149        3.8964462524        5.1866909726
 C       -10.2095671625        3.7824533289        3.6830596577
 O        -9.2495153887        3.3167761273        2.9931197277
 C       -11.4313482385        4.3443627406        2.9503893526
 C       -12.3017664340        3.2120589344        2.2049224311
 O       -11.7868058723        2.1976776420        1.7263320333
 C       -13.9364170696        3.3294021493        2.2822160159
 C       -14.8093124582        2.7329157083        1.1491693774
 C       -14.6961389928        3.5496414967       -0.1194388428
 O       -14.1929564194        4.7261885706       -0.2347715824
 C       -15.0497531364        2.8338622608       -1.4169659236
 C       -13.8764164040        1.8215698129       -1.6747843276
 O       -13.8307739250        0.8914312890       -0.9479332019
 C       -12.8041760053        1.9866944890       -2.7700362104
 C       -11.7697025043        0.8670179448       -2.8171326088
 C       -10.9475387238        0.7803609301       -1.5174754950
 O       -10.7951108087        1.7797862726       -0.8320414571
 C       -10.1107998897       -0.5133514232       -1.2964364241
 C       -10.3181731621       -1.0946014952        0.1069252424
 O       -10.2925432342       -0.3520448433        1.0649938428
 C       -10.9314697964       -2.5197625895        0.3272123356
 C       -10.4523605847       -1.5870436184       -2.4284169142
 C        -8.6392381945       -0.0839132606       -1.3478393553
 C       -16.3477357797        2.0082208036       -1.2228086520
 C       -15.2137662531        3.7791220805       -2.6650035696
 C       -12.3734703219        5.1206252321        3.9250436370
 C       -10.7717498705        5.2522654135        1.8178454685
 C        -7.3257619890        0.6489855075        4.5903500025
 C        -5.1677310668        2.1308803286        4.6486998567
 C        -6.7933765459        3.8106024016       -2.7682877715
 C        -4.4851765758        4.8151883862       -2.6138456983
 C       -10.3928109923        8.2132004816       -5.3514424691
 C        -8.4209870695        9.8935062902       -5.0381491370
 H       -10.5908063287        7.8944624601       -1.9554013661
 H       -11.8934451389        8.2871835755       -3.1589819353
 H       -11.8703557542        9.2278220091       -1.8746360565
 H        -7.8991498235        8.6770433744       -1.9319049350
 H        -6.8557998625        8.9668686404       -3.1744023787
 H        -5.6455360271        7.6587773447       -1.4489915876
 H        -5.7525011927        7.0576596199       -3.1463119781
 H        -7.2585301475        2.8708178119        0.1678322535
 H        -7.2155828141        4.4485531127        0.8362621295
 H        -5.9215919740        4.0138897717        2.6540423539
 H        -4.9378184838        2.7487562298        1.6715551581
 H        -8.4368828843        3.1758953386        6.6492882843
 H        -9.3248921278        2.0735577576        5.7381672822
 H        -9.8966615119        4.9055399003        5.5140528290
 H       -11.0238248640        3.7153225953        5.7283999916
 H       -14.2179533734        4.3533218641        2.1152589068
 H       -14.2174251059        2.9445642751        3.3132698742
 H       -15.8413196564        2.8304078928        1.5579167986
 H       -14.6471416229        1.6407933617        0.9959489420
 H       -12.1916504014        2.8995513573       -2.6776275290
 H       -13.2554352088        2.1225234082       -3.7696136568
 H       -11.1918870433        1.0855434530       -3.6953821947
 H       -12.2452901906       -0.0163872592       -3.0314657157
 H       -10.7905705699       -2.7435400646        1.3533896264
 H       -10.4128742782       -3.4208627720       -0.0846824325
 H       -12.0091660920       -2.6739547476        0.1634112703
 H       -10.2937993531       -0.9569483338       -3.3083793281
 H       -11.4551811238       -2.0554120671       -2.2749436914
 H        -9.7518325650       -2.4414854988       -2.3688714417
 H        -8.5583954702        0.9183204801       -0.9228334309
 H        -8.3697319874        0.0309577944       -2.4428246381
 H        -7.9461659920       -0.7532513471       -0.9163767796
 H       -16.1520923428        1.0310599634       -0.8645887541
 H       -16.7575447157        1.8863213972       -2.1770618408
 H       -17.0337301133        2.4990105768       -0.5514111836
 H       -15.0817384314        3.4012167312       -3.5975233723
 H       -14.4740051290        4.6369760328       -2.5859112103
 H       -16.1432163091        4.2447522795       -2.7179688342
 H       -11.6855826861        5.6574144251        4.6127277414
 H       -13.0369789185        4.4916077785        4.4984928983
 H       -12.9887137476        5.7644564544        3.3401771607
 H       -10.3750165646        6.1103978688        2.3518315149
 H       -11.4779493849        5.5840952908        1.0747581023
 H       -10.1023883576        4.6872431717        1.1402738577
 H        -7.2327926031        0.6370666190        5.7224142868
 H        -6.5103243263       -0.0966322828        4.3814903144
 H        -8.3234771684        0.4997087511        4.3865125113
 H        -4.3540573217        1.7385495716        3.9487384422
 H        -4.8470582517        1.6925578916        5.6205838045
 H        -5.0130171611        3.2196145693        4.6626056841
 H        -7.6461448413        3.4822821661       -2.1925487891
 H        -6.4267514577        2.8239467288       -3.0408072212
 H        -7.1882279462        4.3860839310       -3.6488575420
 H        -4.6682933581        5.3948386895       -3.5428051576
 H        -4.0667444505        3.8565069640       -2.8264527022
 H        -3.8167955219        5.3045910582       -1.9373266268
 H        -9.9132344479        7.9522678310       -6.2868128404
 H       -11.0739037027        9.0731823200       -5.6733822666
 H       -11.0371239427        7.4829391022       -4.8390989805
 H        -8.1265632836       10.7339591419       -4.4290365781
 H        -8.7835102049       10.1976683025       -6.0266760798
 H        -7.5109868643        9.4290315195       -5.3600497836
 Na       -9.3990539202        1.6699307209        1.3326094733
