117

 C        -5.6371557380       -1.4923905886        3.8227299422
 C        -6.8230816376       -1.4296644963        2.8412835049
 O        -6.8568819257       -0.6672666262        1.9104364379
 C        -8.3894277016       -2.0749357294        3.3983803241
 C        -9.0589770918       -2.7535829684        2.3070240361
 O        -9.7058522932       -2.0818520946        1.5117514991
 C        -9.3262594786       -4.1466520379        2.1107982560
 C        -9.2085783546       -4.6414081025        0.7155678739
 C        -7.9687552723       -3.9754627667        0.0948635386
 O        -6.9846373074       -3.6245562068        0.6819475733
 C        -7.9841704845       -3.9752433349       -1.5075130610
 C        -7.6950595660       -2.5046359611       -1.8875391929
 O        -7.3239542127       -1.6627378441       -1.0625932442
 C        -7.8950496867       -2.2705805289       -3.3550532827
 C        -7.7098452313       -0.7810099771       -3.6778757666
 C        -8.2811103184        0.0779366064       -2.5532957028
 O        -9.3865603260       -0.1455180659       -2.0657357225
 C        -7.2966075493        1.3151875689       -2.1245650984
 C        -8.1451203240        2.1055441435       -1.0468006198
 O        -8.6422436934        1.5909254825       -0.0687830351
 C        -8.2936594665        3.6863609741       -1.3085215262
 C        -9.0057176944        4.4115509489       -0.0889275908
 C        -8.2333194093        4.4105164155        1.1837870704
 O        -7.3959940537        3.5631040128        1.3977701291
 C        -8.5543252996        5.5686324807        2.2427739801
 C        -9.5272954407        6.6237575307        1.7808555301
 O        -9.7119719278        6.8939128217        0.6138508068
 C       -10.2878238956        7.5300152308        2.8161146014
 C       -11.5724259219        8.1340637903        2.3304985514
 C       -11.8649337508        9.4601617803        3.0128049530
 O       -11.1278012240       10.0836785055        3.7285823927
 C       -13.3140401165       10.1180357283        2.6049626976
 C       -13.4211615757        9.9686297472        0.9727314875
 O       -14.1950791293        9.1849212380        0.5120935641
 C       -12.5504505956       10.9914802309        0.0856129669
 C       -13.0374765680       10.7106614378       -1.3132681422
 C       -12.8470527905        9.3072583377       -1.8593677164
 O       -12.1373397306        8.4468983798       -1.3126369020
 C       -13.6478854910        8.9367280646       -3.1048929998
 C       -13.8760156028       10.2366464822       -3.9946540142
 O       -12.8588132028       10.7296426285       -4.4448053163
 C       -15.2794275175       10.7746918691       -4.1235517112
 C       -12.6638196327        8.1008729466       -3.9495326747
 C       -14.9094178575        8.1896031387       -2.9393520566
 C       -14.6808052925        9.4006795037        3.1295718845
 C       -13.2756254201       11.5726036327        3.0013194539
 C        -9.3012389990        4.7682707202        3.4085541698
 C        -7.2788101773        6.2311287956        2.8352402697
 C        -6.0438996987        0.7577371470       -1.2861410676
 C        -7.1304800101        2.1405761594       -3.4475350308
 C        -6.7793518656       -4.9877717484       -1.9358315359
 C        -9.2914986932       -4.5240893903       -2.1205323083
 C        -8.3113384007       -2.9806418128        4.6436833157
 C        -9.0196065886       -0.6995254652        3.7343465538
 H        -4.7934656790       -1.4320033780        3.1827701984
 H        -5.6388419556       -2.3783381289        4.4169165617
 H        -5.6692381266       -0.4852065004        4.2387697658
 H       -10.2105200682       -4.4590151144        2.7526166386
 H        -8.5344468022       -4.6933107437        2.5637379080
 H       -10.1511241373       -4.4627941081        0.1391043467
 H        -9.0806247233       -5.8056717234        0.6526893276
 H        -8.9935280030       -2.5466029097       -3.4468947746
 H        -7.2096527361       -2.8580551749       -3.9368013584
 H        -8.1014479729       -0.4992223187       -4.6679382122
 H        -6.6592166958       -0.5542617799       -3.5680708644
 H        -8.8916642605        3.7060430625       -2.2537110611
 H        -7.2308011090        4.0568134102       -1.2225586867
 H       -10.0167389552        4.0085443432        0.0186292563
 H        -9.1826217305        5.4686397287       -0.3813184211
 H        -9.5880012779        8.3223088472        3.1100142911
 H       -10.5184703108        6.9853466892        3.7663839120
 H       -12.5345830311        7.5914778987        2.4247116979
 H       -11.3607380952        8.2684323112        1.2493357111
 H       -11.5241622890       10.6547247500        0.3682124961
 H       -12.5682693199       12.1191421359        0.3374208238
 H       -12.8054231427       11.4941242224       -2.0343212411
 H       -14.0859423133       10.8774790713       -1.2488210975
 H       -15.4964064559       11.2701145534       -3.1521305079
 H       -15.9239293323        9.9049655253       -4.5177761311
 H       -15.2562060460       11.4587514651       -5.0097515915
 H       -12.8820438788        8.1775016042       -4.9642077906
 H       -12.7607803842        7.0549516368       -3.5638935006
 H       -11.7383746216        8.5397928962       -3.4987202021
 H       -15.7306681428        8.9070819179       -2.8487811357
 H       -14.9707473324        7.4655211498       -2.1090716330
 H       -15.0039133310        7.6602860353       -3.8863398149
 H       -15.0285010560        8.9919840240        2.1513552239
 H       -15.2722360754       10.2305361038        3.4361382882
 H       -14.6174472867        8.5324195718        3.8654130662
 H       -13.0894572040       11.5436311380        4.1340673700
 H       -14.2454010843       11.9685267619        2.6576487736
 H       -12.4137033907       12.1289679994        2.6498995472
 H       -10.3580806258        4.4524671918        3.1545560927
 H        -9.0468174131        5.4072210569        4.3073379970
 H        -8.6797392268        3.8089120139        3.4275837614
 H        -7.6740896739        7.2799798418        3.0571305726
 H        -6.3595534373        6.2776646933        2.1242888425
 H        -7.0714719218        6.0247372978        3.8519768908
 H        -5.5806590940        1.4791228847       -0.6434245291
 H        -5.3647635693        0.3209599064       -1.9844179972
 H        -6.5104848455        0.0451106183       -0.5630032994
 H        -6.4898956775        2.9386573115       -3.1402416023
 H        -8.1077052181        2.4890634216       -3.7331746478
 H        -6.6819932310        1.5872121101       -4.2823570673
 H        -5.8410140665       -4.3138908752       -1.7228385678
 H        -6.9253302538       -5.3347952482       -3.0035450058
 H        -6.9267361085       -5.8908071831       -1.3644985841
 H        -9.2029413030       -5.5762090225       -2.1281176689
 H        -9.4029987082       -4.2721015318       -3.1892479833
 H       -10.2578576311       -4.2593866072       -1.5871927246
 H        -7.8676077685       -3.9566890282        4.3909655420
 H        -9.3574136576       -3.1454543688        4.9376224638
 H        -7.7219555508       -2.6799242788        5.4815693976
 H        -9.9922936988       -0.8803244947        4.1725080889
 H        -9.1205623143       -0.1499969929        2.7495441643
 H        -8.6163332686       -0.1683871534        4.6746585887
 Na       -9.0879061436       -0.5281747094        0.2451484115
