117

 C        -5.5984347776       -1.7619142432        3.7959789658
 C        -6.9442979455       -1.4235886442        2.9822735932
 O        -6.9892516512       -0.8040392391        1.9626028330
 C        -8.3021777441       -1.9725764755        3.5948458594
 C        -9.1244658639       -2.7259214247        2.3459875209
 O        -9.6851052432       -1.9959523616        1.4892465903
 C        -9.3606322910       -4.3102729911        2.3562961218
 C        -9.2772037185       -4.7953347990        0.8469474289
 C        -8.0945301533       -4.2458651417        0.0874346427
 O        -7.1867846706       -3.6880744952        0.6585647028
 C        -8.0523695256       -4.1233436539       -1.4524691667
 C        -7.7895369684       -2.6196625752       -1.8400486711
 O        -7.2357821523       -1.8033098188       -1.1168595827
 C        -8.0043982495       -2.3656404753       -3.3052463810
 C        -7.6777688137       -0.8949030237       -3.6669560802
 C        -8.1911437146       -0.0032511933       -2.5299438019
 O        -9.3759489147       -0.0703263582       -2.1956775372
 C        -7.4133959004        1.2656050142       -2.1460221576
 C        -8.1713735794        2.1031026746       -1.1537426718
 O        -8.5972079645        1.5411063556       -0.1461834866
 C        -8.2828902303        3.6339557238       -1.2840975743
 C        -8.9895933612        4.4067430975       -0.1954879862
 C        -8.1753403224        4.6514423164        1.1982147341
 O        -7.3415001068        3.8291306543        1.5889949068
 C        -8.5613858507        5.8097495247        2.2762863597
 C        -9.4735251986        6.9383912343        1.6866490497
 O        -9.6779315857        7.1443297260        0.5249197608
 C       -10.1637611562        7.6155720024        2.7634780883
 C       -11.5609602858        8.0308863619        2.3313901143
 C       -11.8763058293        9.3559082325        2.8814487719
 O       -11.1687608032        9.8441282914        3.6679424203
 C       -13.2801428384       10.0210928001        2.4977289956
 C       -13.2986406526       10.0175038902        0.8925514807
 O       -14.0875341911        9.2547549364        0.3527561737
 C       -12.6519733443       11.0620721638        0.0388656990
 C       -13.0226458706       10.8578962259       -1.4468611263
 C       -12.9019560902        9.2588599096       -1.8914857132
 O       -12.1670876549        8.5105407794       -1.3079412684
 C       -13.6639751760        8.8705753916       -3.1794933773
 C       -13.7345964030       10.2191038663       -4.0179714426
 O       -12.7495598171       10.7269327343       -4.4400287890
 C       -15.1760350882       10.7699468860       -4.2140586230
 C       -12.7682385294        7.8455309521       -4.0802981033
 C       -15.0912964484        8.2723142450       -2.6957773964
 C       -14.3649609803        9.2738062250        3.1001186183
 C       -13.2502747768       11.4746102846        3.1204888379
 C        -9.3514750007        5.0844201840        3.4663393928
 C        -7.2430056822        6.4180007588        2.8197208002
 C        -6.0459864813        0.8906582824       -1.5177726696
 C        -7.1083913486        1.9398305971       -3.4783401012
 C        -6.7136563999       -4.8054792452       -2.0020939459
 C        -9.3527107510       -4.6561137212       -2.0170724631
 C        -8.2981501115       -2.8975385950        4.9058335485
 C        -9.0066344660       -0.6972136825        3.8528069125
 H        -4.8002331472       -1.6786877610        3.1072067806
 H        -5.6549890365       -2.8061180148        4.1503589022
 H        -5.4458160915       -0.9551458514        4.4926668851
 H       -10.3589713587       -4.4763509248        2.6726903531
 H        -8.7227108131       -4.8236197656        3.0347265083
 H       -10.1246525878       -4.2090370191        0.4471416508
 H        -9.4993406021       -5.7855867557        0.6452193299
 H        -9.0695880251       -2.4891729828       -3.4865544388
 H        -7.3579039568       -3.0823089593       -3.8694419917
 H        -8.4079541524       -0.6542291791       -4.4737560042
 H        -6.6485882461       -0.6750271151       -3.9207839913
 H        -8.9048677254        3.6118365911       -2.1905768025
 H        -7.3550558964        4.0440719892       -1.3031910342
 H        -9.9977485540        4.0306128696       -0.0524450111
 H        -9.1055925254        5.3224706865       -0.6438760938
 H        -9.5511533231        8.4684089364        3.1285858049
 H       -10.2028341963        7.0028347239        3.5927041309
 H       -12.4506921975        7.4103887846        2.4811560924
 H       -11.3373962154        8.0808540874        1.2238089539
 H       -11.5934914434       11.1295717589        0.3890599117
 H       -13.0823936685       12.0294668238        0.3170222304
 H       -12.2499657353       11.4365485107       -2.0102260716
 H       -13.8864213253       11.4722487561       -1.6498432831
 H       -15.5346650220       10.7835007313       -3.1999358236
 H       -15.6562303444       10.0245596781       -4.9499297183
 H       -15.2213646805       11.7650536796       -4.7030167200
 H       -13.1205985610        7.7799278906       -5.1527405121
 H       -13.0527702958        6.9048852732       -3.4915313245
 H       -11.7866909278        8.0972117384       -3.7153983385
 H       -15.6502622510        9.0293594192       -2.2526829847
 H       -14.8762547866        7.4437267772       -1.9925842042
 H       -15.5965688394        7.7637271785       -3.5529558035
 H       -15.0153191294        8.9105051586        2.3446539074
 H       -14.8286087765        9.9837353612        3.8990968726
 H       -13.9326960848        8.3925884496        3.5597394971
 H       -13.5459833167       11.3092575777        4.0514970542
 H       -13.9262869126       12.1536689338        2.5873736821
 H       -12.2489755454       11.8481805164        3.2315193773
 H       -10.3975574944        5.0930439101        3.0408556379
 H        -9.0705095897        5.6423407401        4.4939348451
 H        -9.1324716582        4.0508744733        3.4734800493
 H        -7.3741922957        7.4357088642        3.2780662489
 H        -6.3836775900        6.2982281772        2.2181410294
 H        -7.1814254882        5.8793812111        3.8941636850
 H        -5.4855679071        1.8004873131       -1.7693022060
 H        -5.5801944920        0.1143732874       -2.0667053815
 H        -6.0430580630        0.7756240212       -0.5065182662
 H        -6.3542322946        2.7266569082       -3.3842906369
 H        -8.0143967246        2.2981677239       -3.9771942553
 H        -6.6539670680        1.0734627901       -4.0526855253
 H        -5.9989481086       -4.0123309707       -1.9250060082
 H        -6.9924408690       -5.0034252840       -3.0601238712
 H        -6.4283087761       -5.6771037267       -1.5061300317
 H        -9.4365497957       -5.6984667990       -1.8340156238
 H        -9.3601409350       -4.5023767932       -3.1727092484
 H       -10.2703122104       -4.0887194873       -1.5634440499
 H        -7.9226128944       -3.9831902277        4.7493831342
 H        -9.3927214346       -2.9554653443        5.0924955375
 H        -7.7914866121       -2.5733743020        5.8150685175
 H       -10.1080724423       -0.8650729021        4.2459169947
 H        -8.9709561633       -0.1349276952        2.9224843616
 H        -8.6921407133       -0.2141686629        4.7745353348
 Na       -9.1414400433       -0.3622076900        0.3035827337
