117

 C        -5.6983928763       -1.9802266251        3.6530263179
 C        -7.0517096367       -1.6677460308        3.0130289415
 O        -7.0336727912       -0.9499734292        2.0562073954
 C        -8.4714824305       -1.9732989476        3.6320198011
 C        -9.1864542568       -2.7496572750        2.5749755577
 O        -9.6437803885       -2.1611359156        1.6108940953
 C        -9.2799182783       -4.2573296487        2.5305390830
 C        -9.4688142438       -4.7666163126        1.0182417379
 C        -8.1280655855       -4.2907962149        0.2454827894
 O        -7.2349281684       -3.7841261992        0.9314223490
 C        -8.0661032976       -4.2528800066       -1.4582659056
 C        -7.8296173015       -2.7966480363       -1.8817806710
 O        -7.3555812705       -1.9822017675       -1.1309792977
 C        -8.2272156127       -2.4109118452       -3.3988849819
 C        -7.6844849351       -0.9755352877       -3.6827083233
 C        -8.3083002869        0.0198429212       -2.6689534942
 O        -9.4042282932       -0.1612009749       -2.1946114193
 C        -7.3252118056        1.2786529503       -2.2795673380
 C        -8.1686171164        2.1888185178       -1.0922212688
 O        -8.6336394911        1.7658066457       -0.0698978218
 C        -8.2032830999        3.7228287694       -1.2786118730
 C        -8.8586255668        4.4989855239       -0.1031842017
 C        -8.1267517174        4.7352289860        1.2151951225
 O        -7.2437494336        4.0107988050        1.5815487598
 C        -8.5850833052        5.7733646516        2.2248985199
 C        -9.4181971885        7.0501392631        1.6698301102
 O        -9.4879799427        7.3330638664        0.4831147459
 C       -10.1342382565        7.8928459982        2.6362987433
 C       -11.6406242023        7.9696661454        2.1948810450
 C       -11.9340946244        9.3458682009        2.8568034653
 O       -11.1862352904        9.8488438955        3.7376064782
 C       -13.2679819501       10.0184440533        2.4615294909
 C       -13.4944004568       10.1751749924        0.8574085202
 O       -14.0771653040        9.2219143250        0.3576955435
 C       -12.7130231492       11.1573254159       -0.0549759780
 C       -12.8595394323       10.8190101968       -1.5464729063
 C       -12.7774817284        9.3999363982       -1.8662532264
 O       -12.1389485520        8.5672431761       -1.2892952561
 C       -13.6354188943        8.8596990755       -3.1978492264
 C       -13.7355024206       10.0685110340       -4.1101299264
 O       -12.7385459475       10.7153314460       -4.4482919074
 C       -15.1290847132       10.8647454660       -4.4068240266
 C       -13.0097839788        7.6415193654       -4.0170395605
 C       -15.0218501378        8.3892923840       -2.5959263912
 C       -14.2937317703        8.9683600593        3.0995326362
 C       -13.1706633786       11.5629539922        3.0933184470
 C        -9.3079805330        5.1558307464        3.3778856634
 C        -7.1844173376        6.5046848995        2.7542136494
 C        -5.8764903885        0.9698625428       -1.6469698501
 C        -7.0679112536        2.0435826028       -3.6652746118
 C        -6.7503331247       -4.8155366457       -2.0614460270
 C        -9.4005827868       -4.8817787575       -2.1186305675
 C        -8.1963043112       -2.7566358061        4.9247957092
 C        -9.2086972638       -0.6129623671        4.0608337806
 H        -4.8553033640       -1.7016734016        2.9678981262
 H        -5.7111905652       -3.0542717986        3.8148895564
 H        -5.6320972881       -1.3253366064        4.5063155597
 H       -10.1554718534       -4.5775997147        3.0248767894
 H        -8.3994145672       -4.8467142109        2.9400918634
 H       -10.4310379153       -4.6819103870        0.6081094881
 H        -9.2362260003       -5.7638967761        1.2027706212
 H        -9.2489652143       -2.4959739172       -3.6454749811
 H        -7.5488386511       -3.0624946310       -3.9949450639
 H        -7.9711547765       -0.7593823911       -4.7059197056
 H        -6.5875574377       -0.9146695766       -3.5261623628
 H        -8.8308673352        3.7483296847       -2.1034860569
 H        -7.2217731032        4.0970726402       -1.3980083255
 H        -9.6387525248        3.8142346887        0.1957860618
 H        -9.3653677770        5.3307738789       -0.5662243716
 H        -9.6362288714        8.8652451328        2.6400359335
 H       -10.1266001298        7.5885596493        3.6901758426
 H       -12.2522660065        7.1532462777        2.6231900871
 H       -11.6705185794        7.8883922422        1.1083285897
 H       -11.7122114228       11.0485735070        0.3807324104
 H       -13.0166349165       12.1580741915        0.0479112395
 H       -12.0265448829       11.3337772350       -2.0558665934
 H       -13.7570770615       11.3560026071       -2.0408480990
 H       -15.7602250055       10.7918186122       -3.5234396304
 H       -15.5068896289       10.5494216442       -5.2928202678
 H       -14.8907427641       11.9167007440       -4.5425834436
 H       -13.7801037877        7.5463903311       -4.8657074447
 H       -13.2082745124        6.7729661854       -3.4108366201
 H       -11.9557521186        7.8114031686       -4.1135117620
 H       -15.1907686328        9.0776773844       -1.7621817389
 H       -14.7687154593        7.4002206778       -2.2525368618
 H       -15.8797330830        8.2054269939       -3.2344923084
 H       -14.9995695504        8.5192418996        2.4092846178
 H       -14.6521964207        9.4419932630        3.9977620275
 H       -13.6718987880        8.1755309536        3.4556884890
 H       -13.6676578171       11.4451802955        4.0701403865
 H       -13.7012355345       12.2373218556        2.5250400546
 H       -12.1728503421       11.8885104759        3.2493158250
 H       -10.3060154929        5.0786152531        2.9547280648
 H        -9.1930721670        5.8125516050        4.1449012593
 H        -8.9948345586        4.1498925809        3.6290467752
 H        -7.2834885615        7.3806806679        3.3517250160
 H        -6.4784906135        6.5796314608        1.9319185471
 H        -6.8158097644        5.8150403851        3.4943344140
 H        -5.2917121653        1.6591664054       -2.2362004191
 H        -5.4383410112       -0.0167796267       -1.7500523673
 H        -5.7967777721        1.2833586166       -0.6076043984
 H        -6.5954354396        3.0729014347       -3.6214366662
 H        -8.0715661319        2.0894266112       -4.2062553048
 H        -6.4150778292        1.3435409651       -4.1678138590
 H        -5.9589452000       -4.2175933694       -1.7812937122
 H        -6.9929977653       -4.8747191994       -3.0567647992
 H        -6.5000363279       -5.8360795608       -1.5939757721
 H        -9.9264476842       -5.7912341743       -1.5275407157
 H        -9.1693697262       -5.2244517786       -3.1276015654
 H       -10.0781643553       -4.1028193850       -2.2065977633
 H        -7.5233862156       -3.6332157424        4.9272454869
 H        -9.1521207011       -2.9816459326        5.4376028556
 H        -7.7110145932       -1.9681579543        5.6146857067
 H       -10.1894795592       -0.7293285438        4.5244490634
 H        -9.1843556578        0.0986357285        3.2469227707
 H        -8.7361499572       -0.2954582080        4.9296367331
 Na       -9.0422054387       -0.3503649057        0.3462119555
