117

 C        -6.0186483990       -2.7157095173        3.2268336208
 C        -7.1831507780       -1.7955607653        3.1156404327
 O        -7.0784358754       -0.7919525864        2.4118097819
 C        -8.6481084309       -2.1557768019        3.8060793283
 C        -9.5955598931       -2.8055309456        2.7752832189
 O       -10.2452449709       -2.2292211034        1.8896932658
 C        -9.3406108920       -4.4148396007        2.7230583061
 C        -9.5026317391       -4.9155148307        1.2622964073
 C        -8.1587898247       -4.6202393826        0.4822658615
 O        -7.2327537762       -4.2032938561        1.1206561278
 C        -8.1698842822       -4.6554838372       -1.0905948857
 C        -8.0691983984       -3.1434837586       -1.5124788376
 O        -7.7891950851       -2.3843308125       -0.6288394467
 C        -8.5410425623       -2.5740379263       -2.8373087461
 C        -7.9288110980       -1.2148939181       -3.2296584882
 C        -8.3872032114        0.0102307111       -2.3421283631
 O        -9.5340967046        0.1026131880       -1.9924186520
 C        -7.4528123085        1.3997093763       -2.3355647887
 C        -8.0230078678        2.2668499907       -1.2000391921
 O        -8.3657803964        1.7381294924       -0.1591746369
 C        -8.0016303266        3.8547276486       -1.3515506131
 C        -8.5932218433        4.6933496603       -0.1721821072
 C        -7.6427522838        4.9696072832        0.9196305680
 O        -6.5585482631        4.4798240580        0.9471347225
 C        -8.1705969988        6.0717221871        2.0226833386
 C        -8.6924168380        7.4400604120        1.2938010794
 O        -8.6087656896        7.6094509722        0.0932078638
 C        -9.6223283293        8.6289224192        2.0937821855
 C       -11.2658564747        8.5474463875        1.8724348763
 C       -12.0938787269        9.6819821173        2.8056974037
 O       -11.5234919905       10.1784792929        3.8046729290
 C       -13.5727242975       10.1678065504        2.4334406335
 C       -13.6176210912        9.9637132243        0.9583285824
 O       -14.4896690698        9.3886505874        0.3919867039
 C       -12.4706409702       10.7838322299        0.1336449299
 C       -12.7277767082       10.8518291614       -1.3754001876
 C       -12.6716078617        9.3926120553       -2.0566604078
 O       -11.7796578449        8.6820451435       -1.6705169053
 C       -13.7916966602        8.9573276321       -3.1183556807
 C       -13.6136352889        9.9413541922       -4.3237465215
 O       -12.5087893067       10.3137191591       -4.7099342603
 C       -14.8315431555       10.6551520442       -5.0162865799
 C       -13.5592592401        7.5526292223       -3.5396755514
 C       -15.1967791959        9.0893919861       -2.5398584732
 C       -14.6212444517        9.2897760101        3.1319199103
 C       -13.8230994707       11.6333780180        2.9631302857
 C        -9.1657804074        5.2948959340        2.8214378218
 C        -6.7896313504        6.4836554434        2.8158427515
 C        -5.9347914338        1.1026991272       -2.1524493158
 C        -7.4263389909        2.0321398868       -3.8248545078
 C        -6.9853650869       -5.4470674845       -1.8486231943
 C        -9.6181713714       -5.2442014071       -1.7224945250
 C        -8.4364999785       -2.8826663392        5.0848139775
 C        -9.2082769040       -0.6920252509        4.0609115335
 H        -5.1413214304       -2.0955292319        2.9902166954
 H        -6.2624102096       -3.4653946366        2.5305214110
 H        -5.9185338402       -3.0043251125        4.2420838728
 H       -10.1166299708       -4.8919852940        3.2772678955
 H        -8.3354968955       -4.7368906578        2.8960180159
 H       -10.2906627434       -4.3906531664        0.8686412016
 H        -9.5668546713       -5.9864830988        1.1855385731
 H        -9.6159675338       -2.5926197613       -2.7043123414
 H        -8.2565897972       -3.3725509354       -3.5873874294
 H        -8.3895106483       -0.8664679334       -4.1493020723
 H        -6.8241786315       -1.3592559755       -3.3386290405
 H        -8.4561476737        4.1048791073       -2.2282284756
 H        -6.9415390747        3.9575364652       -1.2833027433
 H        -9.3579761136        4.1023592034        0.2346015671
 H        -9.1030878855        5.4416223683       -0.7447823291
 H        -9.5351289101        9.6019514114        1.6921945621
 H        -9.3706198202        8.7264443707        3.1799622258
 H       -11.6199339572        7.5589108749        2.3101762333
 H       -11.4990271864        8.4629358474        0.8059054900
 H       -11.5198929582       10.2388954790        0.2425326328
 H       -12.4611159030       11.7385847396        0.6095276533
 H       -12.0141547178       11.4520761839       -1.9410009403
 H       -13.7553943081       11.2849250958       -1.7226604344
 H       -15.8622287421       10.1986617246       -4.8160430515
 H       -14.6040472078       10.6103200442       -6.0527172151
 H       -14.9175090463       11.7189239910       -4.6061134267
 H       -14.4700426095        6.9329477989       -3.3757214187
 H       -12.6617106139        7.2172640402       -2.9304480677
 H       -13.2811161576        7.7324044315       -4.6641026694
 H       -15.3294471108       10.1824959330       -2.6765506427
 H       -15.3065498424        8.8150372250       -1.5040824525
 H       -15.8693987630        8.4584649288       -3.0694389332
 H       -15.5441542043        9.2809827396        2.4722940648
 H       -14.6560188922        9.5186607145        4.1140515616
 H       -14.2651776086        8.2412968456        3.1931211667
 H       -13.5119604446       11.7429665266        4.0444815459
 H       -14.8128624665       11.8411830072        3.0085443013
 H       -13.4033651627       12.2362519031        2.2811156509
 H        -9.9123457992        4.8212516362        2.1564428353
 H        -9.7487773874        6.0053135244        3.3665478676
 H        -8.5508980506        4.6048823799        3.5383877008
 H        -6.7818076995        6.1730520497        3.9048915379
 H        -6.3869333609        7.6232305667        2.7452943384
 H        -6.0931902341        5.8903838226        2.2743557878
 H        -5.6850455313        0.2662863685       -2.6906766948
 H        -5.6058574030        1.0850828016       -1.1581264880
 H        -5.3627886479        1.9873622868       -2.4417071441
 H        -6.5517421586        2.6338363478       -4.1776600615
 H        -8.2992788443        2.7537425265       -3.8393397926
 H        -7.5572725237        1.2907067011       -4.5777722205
 H        -6.0227772202       -5.0662836929       -1.6615864525
 H        -7.3448382719       -5.4838721904       -2.7617564692
 H        -6.8796867228       -6.3103046498       -1.2155856462
 H        -9.6709399554       -6.3215006306       -1.3944925220
 H        -9.4811680284       -5.2060882844       -2.8489424132
 H       -10.4739911574       -4.6625405314       -1.3387731516
 H        -8.2394382781       -3.8798806236        4.8138107816
 H        -9.4275849080       -2.9093758040        5.5833906931
 H        -7.8194614247       -2.3290402636        5.8581509181
 H       -10.1001601085       -0.7812777126        4.6366670879
 H        -9.4484821776       -0.2455738198        3.0010661070
 H        -8.3856124089       -0.0449092053        4.5731868001
 Na       -8.4382087521       -0.4080616649        0.4617409568
