117

 C        -6.0696926556       -2.8045217801        3.4462617310
 C        -7.1972032924       -1.7954943559        3.1128993520
 O        -7.0329071712       -0.7119312159        2.5064228387
 C        -8.6729471099       -2.0728300569        3.7319991108
 C        -9.4339273587       -2.8933383398        2.6501180263
 O       -10.1996981332       -2.2575257026        1.9835222398
 C        -9.5791572090       -4.4095340290        2.7123223849
 C        -9.5855219320       -5.0693123935        1.3182664940
 C        -8.2290896234       -4.8762455949        0.5304896842
 O        -7.2047459524       -4.5453956840        1.0712093387
 C        -8.2616745634       -4.7428121696       -1.0767094366
 C        -8.1553031707       -3.0805584332       -1.2921253224
 O        -7.6830596235       -2.2493502875       -0.5024913419
 C        -8.5893961109       -2.6636563096       -2.6709259873
 C        -7.9581407160       -1.3757722391       -3.1368782820
 C        -8.4318655001       -0.0458875467       -2.4513300838
 O        -9.5937250550        0.0462455790       -2.0232646712
 C        -7.4928398041        1.2466551149       -2.4401592093
 C        -7.9074372767        2.3558176068       -1.1827264019
 O        -8.2449675028        1.8906492807       -0.0880797145
 C        -8.0062484836        3.9071113712       -1.4298869538
 C        -8.6244026844        4.7109263184       -0.1776147098
 C        -7.5156451224        5.2579296369        0.8089635095
 O        -6.3841154279        4.7468108872        0.8535346148
 C        -8.0923703181        6.2309404270        1.9141638743
 C        -8.8285264031        7.5970650513        1.2316984757
 O        -8.5711347727        7.8824662216        0.1231145269
 C        -9.6996721665        8.6058102197        2.0641691257
 C       -11.1754232044        8.5075665886        2.0639013882
 C       -11.8364014487        9.6577615007        2.8073310534
 O       -11.4569038907       10.1473666583        3.7935722531
 C       -13.3830245603       10.1888269022        2.3559202291
 C       -13.6732246485       10.1494702078        0.8069825111
 O       -14.4934039082        9.4130251666        0.3641115554
 C       -12.5433062128       10.8075862526       -0.0261798711
 C       -12.8763367997       10.8375499762       -1.4761887626
 C       -12.7811232399        9.4202513496       -2.0610079317
 O       -11.8177882685        8.7458931210       -1.7702598149
 C       -13.7909585924        9.0598249512       -3.1362117832
 C       -13.5244799952        9.9810450112       -4.4704100824
 O       -12.3956280665       10.2624438313       -4.7835709990
 C       -14.6711838207       10.5790110645       -5.2187642948
 C       -13.6498022030        7.2940659894       -3.4659631664
 C       -15.3219874342        9.2705377198       -2.5568423312
 C       -14.3032478909        9.1201739088        3.1055506668
 C       -13.6904662265       11.5320065159        3.0703031077
 C        -9.1982545081        5.5131384246        2.7045089904
 C        -6.7888849747        6.5433426135        2.8870169345
 C        -5.8572389950        0.9240545631       -2.1434527624
 C        -7.8136280920        1.7879734053       -3.7725150158
 C        -7.1684102170       -5.4549189158       -1.9248834951
 C        -9.5769908974       -5.2165951746       -1.6586572569
 C        -8.5379716882       -2.8718325142        5.0127480702
 C        -9.1549729333       -0.6361152514        4.1226787828
 H        -5.1544930569       -2.2470442201        3.4410090385
 H        -6.1398015974       -3.6794328093        2.7986860963
 H        -6.2330500986       -2.9840753722        4.5308283629
 H       -10.6245712440       -4.5787343312        3.2322301129
 H        -8.6786125124       -4.8802000065        3.0854885930
 H       -10.2499714403       -4.4358231322        0.8348151955
 H        -9.8050551214       -6.1123460910        1.2082591622
 H        -9.7124399765       -2.6649424265       -2.6105506312
 H        -8.3234351116       -3.4854948864       -3.2800731937
 H        -8.1513182209       -1.1628194144       -4.1894135954
 H        -6.8835667646       -1.5217964964       -2.9633261268
 H        -8.6955305402        3.9271274528       -2.2345742401
 H        -7.0146602029        4.2813935861       -1.6622424708
 H        -9.4950379920        4.2361688852        0.1734031028
 H        -8.9682876343        5.5203755313       -0.8388365778
 H        -9.7089774159        9.6398129705        1.7681546662
 H        -9.2459356209        8.4725507765        3.0971004892
 H       -11.5410019952        7.6689292542        2.6890314836
 H       -11.5850120937        8.2473895096        1.0954960868
 H       -11.7133946213       10.1627409918        0.1586894724
 H       -12.4474098363       11.7841482074        0.3991218078
 H       -12.1247028655       11.3380265365       -2.1605832321
 H       -13.8064963418       11.3585169236       -1.7722937838
 H       -15.4115808053        9.8305592873       -5.2325815227
 H       -14.4472040923       10.8822633673       -6.2668999417
 H       -15.0615508622       11.3346415755       -4.6218274937
 H       -14.6003276266        6.8973894458       -3.1701343420
 H       -12.7626758262        6.8871040562       -2.8685531907
 H       -13.5524850616        7.2840264965       -4.5797100221
 H       -15.4258171983       10.2769292158       -2.1169628023
 H       -15.2682360118        8.5786577350       -1.6996556463
 H       -16.1150817135        8.9000454772       -3.2017599115
 H       -15.3408909102        9.2880441529        2.9078893363
 H       -13.9867753602        8.9516819194        4.1183531156
 H       -14.0660555992        8.1642433117        2.6566888932
 H       -13.5256976117       11.4330317523        4.0707682238
 H       -14.7660383310       11.5616872643        3.0796034971
 H       -13.3152439155       12.4146404316        2.5905680562
 H       -10.0465736677        5.5636044052        2.1561623739
 H        -9.4535653745        6.2796023733        3.4651731324
 H        -8.9494950230        4.6152911292        3.0720546686
 H        -7.1359296874        6.1761561994        3.8179662247
 H        -6.5701803627        7.5460036047        3.0716040150
 H        -5.8810925363        6.0200888899        2.5429304441
 H        -5.5760782329       -0.0875405219       -2.2419452676
 H        -5.7278085409        1.1919411526       -1.1259085848
 H        -5.1408470049        1.6130346571       -2.5356462788
 H        -7.1191229916        2.6068534202       -4.0665103679
 H        -8.8487271933        2.2010576243       -3.8181126789
 H        -7.6377741528        1.0382793130       -4.6014687404
 H        -6.2588759275       -4.8161407914       -1.8302236093
 H        -7.6222760595       -5.4992835608       -2.9732383702
 H        -6.8581764216       -6.2360035644       -1.3921223078
 H        -9.4870063395       -6.1683522856       -1.8941872277
 H        -9.8165835982       -4.6223502574       -2.5404440796
 H       -10.3320211430       -5.0202116847       -0.8524151066
 H        -8.2091709908       -3.8703362161        4.6737654944
 H        -9.5773740213       -3.0494277151        5.4296451746
 H        -8.0368582824       -2.3447159123        5.8141966351
 H       -10.1202034711       -0.7957633994        4.5755491754
 H        -9.2980409544       -0.0434685335        3.2830258011
 H        -8.3755237478       -0.1775953395        4.7522016723
 Na       -8.4817669615       -0.4119445925        0.6221159663
