117

 C        -6.0376241018       -2.7373718756        3.6021442757
 C        -7.1551940027       -1.7351474338        3.2433246549
 O        -6.9140291990       -0.8460737798        2.4483776027
 C        -8.5826861495       -2.0651756304        3.7677668168
 C        -9.5498134756       -2.8133655323        2.6614485302
 O       -10.0548637337       -2.1771402248        1.7677553164
 C        -9.6639999766       -4.3722068589        2.7103007050
 C        -9.5807193773       -5.0963134368        1.3370097348
 C        -8.2751314667       -4.8816001535        0.5240756915
 O        -7.1808206386       -4.9875802806        1.0921816978
 C        -8.4692057151       -4.6144983116       -1.0171363877
 C        -8.2510807817       -3.1096984474       -1.2034401959
 O        -7.6488293761       -2.4409584361       -0.3536559439
 C        -8.6465456380       -2.5570464806       -2.6543530594
 C        -7.8767837011       -1.3453045128       -3.0570735855
 C        -8.4004214010       -0.0728263620       -2.2908942564
 O        -9.5575321713       -0.0511866358       -1.9554168189
 C        -7.6130135116        1.2443072774       -2.3077905599
 C        -7.9499399180        2.2655952965       -1.1948007652
 O        -8.0948790575        1.8888642425       -0.0580052862
 C        -7.9641415454        3.7983951126       -1.5736688383
 C        -8.4963764653        4.7098849443       -0.3349123477
 C        -7.5440057611        5.3911147096        0.6806096320
 O        -6.3625621558        5.0972902916        0.7016006206
 C        -8.1216470964        6.4227683892        1.8542821318
 C        -8.6444515689        7.7071242181        1.2404567250
 O        -8.5344759099        8.0215022195        0.0717528307
 C        -9.5299997688        8.5516824179        2.2015684570
 C       -11.1503649672        8.3695968556        2.2231612439
 C       -11.8342725136        9.6646592630        2.8904886535
 O       -11.1976108349       10.1480900218        3.7772547013
 C       -13.2529675679       10.0305006032        2.4373983129
 C       -13.4959447366       10.1377001140        0.8076255526
 O       -14.4915586252        9.5465694321        0.3466350834
 C       -12.6145154055       10.9834093911       -0.1304182989
 C       -12.9796142350       10.9466435140       -1.6035687761
 C       -12.7920333098        9.4733801766       -2.2168164279
 O       -11.9288754382        8.6826419984       -1.8474250832
 C       -13.8712258702        9.0451047752       -3.2046701776
 C       -13.4845854313        9.8433904113       -4.4943049536
 O       -12.3328444570       10.0814181433       -4.7226086448
 C       -14.6232287930       10.4480199189       -5.3670586427
 C       -13.7440572549        7.5004508726       -3.4675730657
 C       -15.2875747660        9.3282309712       -2.7497750298
 C       -14.0530083790        8.8525179562        3.0073184156
 C       -13.5228698877       11.4319400534        3.0358919280
 C        -9.2475675975        5.7271982801        2.6643305083
 C        -7.0201856417        6.7384248922        2.8347740367
 C        -6.1252289573        0.8606022326       -2.1462754119
 C        -7.9965516789        1.7156061082       -3.7495568338
 C        -7.2282442716       -5.2994552927       -1.7765622725
 C        -9.7559514528       -5.2403045036       -1.6437977199
 C        -8.5925726263       -2.9626452346        5.1724275933
 C        -9.2624685027       -0.6993027491        4.0968079456
 H        -5.0881348607       -2.2754699902        3.3461408220
 H        -6.3511892654       -3.5535589954        2.8914527051
 H        -6.0641610549       -3.0403263377        4.6634003610
 H       -10.7553248178       -4.5731474387        2.9936706605
 H        -8.8209876368       -4.8923984027        3.2579848763
 H       -10.4783848559       -4.5762889935        0.8216256093
 H        -9.6240558955       -6.2011204096        1.3388521998
 H        -9.7007875356       -2.2263647860       -2.5191025815
 H        -8.6940893654       -3.3573963112       -3.3537961445
 H        -8.0664420518       -1.0824185985       -4.1191289723
 H        -6.8376502646       -1.5682879179       -2.9323133641
 H        -8.6996727244        3.7878681623       -2.5009316957
 H        -6.9081915317        3.9835144217       -1.8734665924
 H        -9.2105795607        3.9877419865        0.1720584093
 H        -9.1581182000        5.3861563717       -0.8599315259
 H        -9.6763761731        9.6579723604        1.9957514883
 H        -9.0759899181        8.3520682229        3.1646452582
 H       -11.4952147125        7.5349803890        2.7903322269
 H       -11.5859571096        8.1514702217        1.2281187717
 H       -11.6405231511       10.5580892538        0.1075771598
 H       -12.7646839927       12.0393846547        0.1786893143
 H       -12.3452370896       11.6016951012       -2.2576918280
 H       -13.9217107597       11.3677887795       -1.7885204482
 H       -15.0658661474        9.6069021514       -5.8571739126
 H       -14.2639410709       11.0638449550       -6.1660461118
 H       -15.3089226316       10.9535417238       -4.7432440492
 H       -14.6205859602        7.0405499245       -2.9605299236
 H       -12.8499895209        7.2788273924       -2.9290269039
 H       -13.7180084395        7.2565628910       -4.4790234769
 H       -15.2634009503       10.2070111457       -2.1352857682
 H       -15.5302748934        8.5279555222       -2.0160854703
 H       -16.0598919365        9.3337013211       -3.5743004071
 H       -15.0173571148        9.2038632414        3.1800338743
 H       -13.5978299851        8.3574848712        3.9489599166
 H       -14.1531115396        8.0661747238        2.3006390033
 H       -13.3577966752       11.3993095110        4.0888190067
 H       -14.6116659086       11.7142318986        3.0073031196
 H       -12.8796556928       12.1974346416        2.5062680714
 H       -10.1819892652        5.8744194330        2.1611911915
 H        -9.4375917944        6.1209494945        3.6053217511
 H        -9.0637474168        4.6833243896        2.7141802719
 H        -7.4302751201        6.4192511265        3.7155854086
 H        -7.0877635358        7.7317334203        3.0577102734
 H        -5.9951588453        6.4754039971        2.7059337424
 H        -5.9981108995       -0.2596356518       -2.3322166576
 H        -5.6480442382        1.0883708425       -1.1742368508
 H        -5.5043321746        1.4377906305       -2.7720086592
 H        -7.6416584846        2.7324634335       -3.9226212867
 H        -9.0629300950        1.6622869745       -3.9230023422
 H        -7.4059482064        1.1664086233       -4.5557917615
 H        -6.3538852161       -4.6779947818       -1.5261596148
 H        -7.5636326932       -5.1174382200       -2.8549865745
 H        -6.9941437467       -6.3084924268       -1.2315512535
 H        -9.4323465828       -6.3372929549       -1.8780557472
 H        -9.9670303527       -4.7320528734       -2.4907562755
 H       -10.5262919480       -5.1918816662       -0.9731518554
 H        -8.1090913643       -3.9748412176        5.1338864177
 H        -9.6484865802       -3.1398256201        5.4240233374
 H        -8.2768805980       -2.3156896885        5.9512282346
 H       -10.2764545055       -1.0784993326        4.3091018935
 H        -9.3906086525       -0.1185844630        3.2505235206
 H        -8.7210122915       -0.1528908202        4.7526136316
 Na       -8.5609429500       -0.3752106126        0.7920507107
