117

 C        -6.0275285061       -2.6606486821        3.8722720070
 C        -7.1764923593       -1.8556133524        3.3279606707
 O        -7.0604465357       -1.1414173132        2.3205192436
 C        -8.5646492279       -1.9566422168        3.9299927499
 C        -9.2925248678       -2.7900813685        2.5689961094
 O        -9.4994906656       -2.1800455909        1.5442695777
 C        -9.6362288787       -4.3168313516        2.8240910010
 C        -9.8231854022       -5.0322231130        1.4405224526
 C        -8.5657538596       -5.2520897181        0.5888397179
 O        -7.5480942112       -5.6269635419        1.0594833408
 C        -8.4891817020       -4.7436582588       -0.9333655749
 C        -8.4417972871       -3.1703076019       -1.0556437437
 O        -7.9774577327       -2.3507993817       -0.2774917544
 C        -8.9341964085       -2.6708582265       -2.4912338322
 C        -8.0671071224       -1.3944843980       -2.7765182547
 C        -8.5275912294       -0.0743895116       -2.0502873887
 O        -9.4617697470       -0.0778170120       -1.2551654865
 C        -7.7202955594        1.3365764964       -2.2903079618
 C        -7.9986662114        2.2877469342       -1.0530190637
 O        -8.1528881508        1.7579041993        0.0502643905
 C        -7.7784082493        3.8337721086       -1.2054291316
 C        -8.5219445122        4.6955331130       -0.2533021925
 C        -7.5636272171        5.5947060180        0.5530020901
 O        -6.4094811412        5.6599491395        0.2238934442
 C        -8.1590182936        6.4031341260        1.6552322089
 C        -8.6146550282        7.8137129720        1.1476291840
 O        -8.5410844972        8.2280349777        0.0527944132
 C        -9.2894617130        8.6827758251        2.2144025967
 C       -10.8001847274        8.4570729678        2.0705436761
 C       -11.4627598180        9.6143781811        2.7191499380
 O       -10.9424777924       10.2991213610        3.5819549202
 C       -12.9611996967        9.8723843610        2.3576728304
 C       -13.3289952281       10.1133704284        0.8139422513
 O       -14.3181479504        9.6764882689        0.3847345043
 C       -12.4957502824       11.1320977102       -0.0248499431
 C       -12.9727418509       11.0174821255       -1.4532186065
 C       -13.0036557413        9.5486132746       -1.9920616533
 O       -12.1378996531        8.7537600529       -1.7490297021
 C       -13.9766265616        9.1541309590       -3.3036554874
 C       -13.4914432510        9.8500409005       -4.6121524307
 O       -12.2988306965        9.7698771637       -4.8028507499
 C       -14.3703770981       10.1806002092       -5.7473542625
 C       -13.8221208728        7.5001248236       -3.7013079199
 C       -15.5728025276        9.4217407196       -3.0137777617
 C       -13.9238284890        8.6923088734        2.7773990214
 C       -13.3881325812       11.1596796224        3.0534697887
 C        -9.2788158467        5.4986847257        2.2830601218
 C        -7.0411479832        6.7732604699        2.6026240559
 C        -6.1505962551        1.2618945231       -2.2258909235
 C        -8.0140772414        1.8020802804       -3.6825319297
 C        -7.1869037594       -5.2726595541       -1.5773427603
 C        -9.7854781419       -5.2997187866       -1.5806330703
 C        -8.6726837944       -2.8951801270        5.1872130022
 C        -9.4795501854       -0.7314529116        4.1363505152
 H        -5.1367571603       -2.3312214937        3.3534880813
 H        -6.2623060441       -3.7008478885        3.7987055544
 H        -6.0106679703       -2.3574328313        4.9195573736
 H       -10.5633813405       -4.4452218898        3.2733567623
 H        -8.8037045933       -4.7677894343        3.1850977348
 H       -10.5397650815       -4.4431654653        0.9436906595
 H       -10.2600330546       -6.0451866154        1.6615489377
 H       -10.0064837525       -2.5601645387       -2.6870302874
 H        -8.6617926360       -3.5374474656       -3.1528111537
 H        -7.9385208256       -1.2799005888       -3.8511489804
 H        -7.0355314273       -1.5246734981       -2.3560840441
 H        -8.0985225147        3.8480064012       -2.1789152258
 H        -6.6813019143        4.0830181583       -1.1061684764
 H        -9.3094839214        4.0976480799        0.1227566754
 H        -9.0457209201        5.4246502059       -0.9583389509
 H        -9.1666533060        9.7166405051        1.9881418784
 H        -9.0451123178        8.4521463367        3.2570657850
 H       -10.9403355842        7.4952699112        2.6225554457
 H       -11.3501791541        8.2929255120        1.1629491442
 H       -11.4408309085       10.7822857732        0.0967677885
 H       -12.7143995954       12.1705809480        0.2816605154
 H       -12.2291073843       11.4685974162       -2.0767992355
 H       -13.9379347905       11.5482846116       -1.8019401466
 H       -14.4116930569        9.3140875694       -6.4508046927
 H       -13.7713976547       10.8596436474       -6.4663528519
 H       -15.3543552378       10.6382137989       -5.4573632140
 H       -14.1111852288        7.0034527343       -2.8324106111
 H       -12.7705401599        7.3154589313       -4.0021353531
 H       -14.6667166102        7.1703725475       -4.3572346434
 H       -15.9499654017       10.4624147788       -3.2067794637
 H       -15.7738978223        9.2313908053       -1.9593336539
 H       -16.0443743011        8.7398085495       -3.6712228713
 H       -14.9231983109        9.0591249828        3.1917347449
 H       -13.4839134111        8.1834500265        3.6148236714
 H       -14.1031586726        7.9158555598        1.9547401662
 H       -13.5462147809       10.9574807127        4.1127664680
 H       -14.4301359680       11.3387176039        2.7011880493
 H       -12.7235798251       12.0411229597        2.9063820437
 H       -10.1873373938        5.1769814446        1.6820416886
 H        -9.6891610895        6.2243899154        3.1722580195
 H        -8.8666597000        4.5819908319        2.7768331809
 H        -6.7414714431        6.2136909461        3.5466680955
 H        -7.1255799618        7.8226138102        2.9700405812
 H        -6.2005665439        6.7907323602        1.8391809661
 H        -5.7170696623        0.5046569282       -2.8469865393
 H        -5.7787769044        0.9695035124       -1.2278715507
 H        -5.6779708951        2.2927160606       -2.4172132963
 H        -7.4790217035        2.6936500568       -3.9374537001
 H        -9.0358982904        1.7889094630       -4.0603465478
 H        -7.5284876265        1.1198723405       -4.3342405049
 H        -6.3733022625       -4.9928021544       -0.8829488164
 H        -7.1240103464       -4.6685145662       -2.4534110197
 H        -7.2714120606       -6.2613859696       -1.6764484662
 H       -10.0739898440       -6.1624812842       -1.1561962478
 H        -9.4902940286       -5.3890754622       -2.6881343183
 H       -10.4975711936       -4.3760467433       -1.5049936814
 H        -8.0938102530       -3.7600423896        5.0165394651
 H        -9.7300107522       -3.1568734498        5.3216097303
 H        -8.2711473362       -2.3709868478        6.0673253032
 H       -10.5124908782       -1.0336971189        4.0806259451
 H        -9.2801772300       -0.0895670763        3.2258015125
 H        -8.8971252299       -0.1022849632        4.8866191343
 Na       -8.5743814091       -0.2882052289        0.8252704210
