117

 C        -5.9781667281       -2.3946366801        4.2707458245
 C        -7.1454070044       -1.9847958881        3.3425047166
 O        -6.9510045393       -1.1138994485        2.5037235556
 C        -8.5799776691       -2.0939807826        3.8607223549
 C        -9.4512592499       -2.8935254857        2.7905829538
 O        -9.6580828752       -2.3362255310        1.7031127676
 C        -9.6499626070       -4.5039759349        2.9879649932
 C       -10.0886454668       -4.9120490566        1.4482984268
 C        -8.8354242063       -5.3691439144        0.6065258977
 O        -8.0257634589       -6.1029889285        1.1808666966
 C        -8.5757687519       -4.9540034763       -0.8954315665
 C        -8.4465001123       -3.2194600467       -1.0285580575
 O        -7.9713416037       -2.7020106089       -0.0685666641
 C        -8.9633207531       -2.4055088416       -2.3585394705
 C        -8.2570659766       -1.1607536394       -2.8468404140
 C        -8.5059671284        0.0338323639       -1.8821734498
 O        -9.3937999429       -0.0781526625       -1.0868408513
 C        -7.6437229947        1.2934214362       -2.0401231381
 C        -7.8418439469        2.3389017638       -0.9462409361
 O        -8.3696200486        2.0394020074        0.0851772944
 C        -7.6164392624        3.8348613903       -1.2865803101
 C        -8.3912986311        4.7369410628       -0.3407233524
 C        -7.4420873999        5.6501948619        0.1918365080
 O        -6.4848082436        6.0819948200       -0.4332133603
 C        -7.8186702177        6.3646694913        1.5149543148
 C        -8.4465872588        7.8307794840        1.1227051593
 O        -8.4042932484        7.9775610503       -0.1037679112
 C        -9.2833832420        8.7848787344        1.9934851998
 C       -10.7676265972        8.7238475386        1.6509072819
 C       -11.5083923351        9.9388372617        2.5363336479
 O       -10.9329227446       10.7049308367        3.3425415491
 C       -12.9995386694        9.9852891446        2.3326467677
 C       -13.3703338130       10.1852311386        0.7869440541
 O       -14.3233056115        9.4995859081        0.3388344524
 C       -12.4011695809       10.9034072022       -0.2065103064
 C       -13.1202412028       11.0486288347       -1.5877297624
 C       -13.1876132006        9.5459020911       -2.1517942375
 O       -12.6019595729        8.6864103266       -1.5147237420
 C       -14.0044013536        9.1427194468       -3.4221085857
 C       -13.2672200526        9.7485032135       -4.7341167447
 O       -12.0642010538        9.8281266058       -4.9352349052
 C       -14.2310564739        9.9936076392       -5.9450021710
 C       -13.8998631794        7.5207455395       -3.4422377734
 C       -15.3473703676        9.8249819093       -3.0754800526
 C       -13.6642110024        8.6500468339        2.8283950305
 C       -13.6785355347       11.0990085038        3.2861516244
 C        -9.0180430197        5.8634490773        2.4313858012
 C        -6.6366126531        6.3034874865        2.5268503414
 C        -6.1287994446        1.0008181315       -2.2348897758
 C        -8.3851497274        1.9093145346       -3.3358675259
 C        -7.1767361245       -5.4650637337       -1.4499333713
 C        -9.8425277786       -5.4761284990       -1.6669111638
 C        -8.7258294922       -2.7729345645        5.2830110932
 C        -9.3065253981       -0.6868792971        4.0034306967
 H        -5.0852772920       -2.1236444608        3.7103967197
 H        -6.1239271852       -3.3762779005        4.7164793556
 H        -6.1193078094       -1.7250647937        5.0927901522
 H       -10.6232120029       -4.7538012824        3.4768777515
 H        -8.7340345136       -5.1938949734        3.1212124764
 H       -10.4800459483       -3.9598926038        1.0255821151
 H       -10.9421547444       -5.5412484753        1.4126045334
 H       -10.0277656013       -2.2897454293       -2.1238311184
 H        -9.0447416595       -3.1315138036       -3.1420783634
 H        -8.5057331087       -1.0672458156       -3.9226575646
 H        -7.1973667587       -1.3795078726       -2.8689926750
 H        -7.8700483801        3.9116740182       -2.4503251703
 H        -6.5797120371        4.0603880474       -1.3084029061
 H        -9.0726146160        4.1097186751        0.3656210847
 H        -9.0458320925        5.3645331177       -0.8756114278
 H        -8.8453734180        9.7836070626        1.6415806515
 H        -9.1052651949        8.5718778712        3.0681418223
 H       -11.0262848468        7.7340926467        2.0312855747
 H       -11.1428070624        8.6948368780        0.5987634436
 H       -11.6634480214       10.1544330936       -0.3442435769
 H       -12.0361282277       11.8475234226        0.1208152032
 H       -12.4381023969       11.6878098790       -2.2442573200
 H       -14.1053476993       11.3789120236       -1.7639212581
 H       -14.4138283959        9.0441663098       -6.4239511498
 H       -13.7577688346       10.4032009416       -6.7210600227
 H       -15.0918083630       10.6000573158       -5.7147801547
 H       -13.9540069003        7.0905793440       -2.3613487190
 H       -12.9798699374        7.3676792146       -3.9852786480
 H       -14.8267864918        7.1166967501       -3.8409171541
 H       -15.5469248907       10.7723309829       -3.4744280890
 H       -15.3171532981        9.9392471181       -2.0156053304
 H       -16.1962967660        9.2035427438       -3.4373359959
 H       -14.6819591613        8.7306324529        2.5464570373
 H       -13.7379039936        8.5485916879        3.9299105197
 H       -13.2787824876        7.7718274214        2.4223512302
 H       -13.4116990227       10.7951584240        4.3458526065
 H       -14.6366568255       11.4222544958        3.1343400626
 H       -13.0114776518       11.8949614618        3.2383057976
 H        -9.8626865590        6.0423976149        1.8584084784
 H        -9.0328072787        6.2026611878        3.3466350945
 H        -9.0745820359        4.7717525228        2.5155203367
 H        -6.3553366814        5.2722048956        2.5832083076
 H        -6.8719043651        6.5741228696        3.5867328350
 H        -5.7776321115        6.7557874306        2.2077140872
 H        -5.9114790002        0.8803829468       -3.2851374922
 H        -5.7395015565        0.0939583975       -1.8526794846
 H        -5.4898843570        1.7902127254       -1.9917865741
 H        -7.8369690664        2.5972822860       -4.0080350740
 H        -9.3287360298        2.3323878022       -2.9505852639
 H        -8.9136438118        1.1803773570       -4.0071309755
 H        -6.3926472447       -5.0943258705       -0.7636397190
 H        -7.0211406039       -5.0232187739       -2.4417477808
 H        -7.4726655581       -6.6118258981       -1.5882761536
 H       -10.2010042514       -6.3063082135       -0.9588633617
 H        -9.4976965590       -5.9066335394       -2.5492653050
 H       -10.5187510404       -4.7378777965       -1.8201050365
 H        -8.3837921163       -3.8399903326        5.1931161421
 H        -9.7806627914       -2.6894318024        5.5106601276
 H        -8.0037553502       -2.2984867076        5.9706075511
 H       -10.2864914590       -1.0771892625        4.1394310231
 H        -9.3612461832       -0.1382014951        3.0829209597
 H        -8.7963684469       -0.0979250991        4.6613205920
 Na       -8.3962660284       -0.2773628833        0.9415685802
