117

 C       -11.4154935222        8.7048110872       -2.6749803288
 C       -10.1834087087        9.2932198701       -3.2593755062
 O        -9.6531668967       10.3343974180       -2.7850397139
 C        -9.4343659776        8.6107327789       -4.4775914029
 C        -8.5251215511        7.5183442905       -3.8609746776
 O        -8.6329654833        6.3339397125       -4.1406811590
 C        -7.7289476075        8.0474487421       -2.6972828001
 C        -6.4523946757        7.1857118276       -2.4584735298
 C        -6.7491914328        5.8816011517       -1.6084074889
 O        -7.6354916506        6.0924301506       -0.7810548679
 C        -6.0097146757        4.5946425691       -1.8271404971
 C        -5.4802571728        3.8096666254       -0.5667164819
 O        -4.3599124249        3.3787863531       -0.4027618323
 C        -6.4246099548        3.7670754387        0.5706559219
 C        -5.8092194314        3.3428473697        1.9535481858
 C        -6.6080151879        2.2306726262        2.6426549704
 O        -7.3246571223        1.4957793641        1.9401805869
 C        -6.5356087957        2.1177127182        4.1354443109
 C        -7.5032351494        3.3588366475        4.5857024287
 O        -7.1100370381        4.4349325621        4.2156399573
 C        -8.6738239275        3.1400466675        5.5412867040
 C        -9.8361395530        4.0310196087        5.0827579969
 C       -10.1877211790        3.6460087165        3.6677198216
 O        -9.5245302944        2.8676093970        3.0679002774
 C       -11.3687687838        4.4284403052        2.9790781353
 C       -12.3924613042        3.3105945657        2.3159560657
 O       -11.9652426191        2.3148001434        1.8210771666
 C       -13.8526102286        3.5270735205        2.4059528034
 C       -14.6364626240        2.7573165171        1.2608236926
 C       -14.4942833195        3.5538618590       -0.1185581379
 O       -14.1327429207        4.6525604956       -0.2059607909
 C       -15.0118091567        2.6783864065       -1.3371469042
 C       -13.8167809793        1.6783676572       -1.6244112789
 O       -13.5867411651        0.6887146947       -0.9085482857
 C       -12.8345196551        1.9755491098       -2.7507365224
 C       -11.6690283505        0.8983337120       -2.7706449248
 C       -10.8834554765        0.8526398036       -1.4680321823
 O       -10.7541068023        1.8228121289       -0.7481889446
 C       -10.1072495011       -0.4801146172       -1.2038384593
 C       -10.4010261098       -0.9806046561        0.2892228877
 O       -10.2087644244       -0.2705472340        1.2547985001
 C       -10.8486127061       -2.3454264915        0.4918339775
 C       -10.3927480942       -1.6070656846       -2.1767542045
 C        -8.6341550496       -0.2290756099       -1.3561580198
 C       -16.3016818843        1.7724994710       -1.1190329109
 C       -15.1821063844        3.6001925041       -2.5429405200
 C       -12.0840980808        5.4784491397        3.8913772608
 C       -10.8071122333        5.2557736352        1.7417756275
 C        -7.1133654348        0.7203886232        4.5482295715
 C        -5.1677223755        2.2864623731        4.7836691976
 C        -7.0635933014        3.7095252768       -2.6160912853
 C        -4.8600399567        4.9079450628       -2.8716567789
 C       -10.4971416411        7.9069080846       -5.4721286522
 C        -8.6123755786        9.5959799881       -5.3165341212
 H       -11.0121592268        7.9342627561       -2.0238301793
 H       -12.2775934666        8.3091940937       -3.2586889299
 H       -11.9931967698        9.4678811106       -2.0959493290
 H        -8.4643808645        7.8941420113       -1.8133400914
 H        -7.4749987048        9.1552987488       -2.8131852276
 H        -5.7044809954        7.6867576048       -1.8956897797
 H        -6.0160784247        7.0243922877       -3.4149874034
 H        -7.2326254220        3.1432070435        0.2297037370
 H        -6.8801570025        4.7807320330        0.7014842207
 H        -5.5405994276        4.1782261692        2.5669629573
 H        -4.9232942818        2.7174506154        1.7113134137
 H        -8.4591187144        3.4087170219        6.5583182706
 H        -9.0988042246        2.0716543463        5.5886043086
 H        -9.5906900755        5.0869835941        5.3351897759
 H       -10.6390954146        3.9590443371        5.7749185238
 H       -14.1714567107        4.5700440865        2.2324607875
 H       -14.1458269282        3.1590518416        3.3789045044
 H       -15.6172224683        2.6659241721        1.6549373340
 H       -14.2345468116        1.7789374812        1.2375281376
 H       -12.3520435480        2.9235505826       -2.5183264236
 H       -13.3294127766        2.1355353611       -3.7067332172
 H       -11.0010668196        1.1143757853       -3.6287593542
 H       -12.2498235113       -0.0625539160       -2.9755167674
 H       -11.0830163686       -2.7097846254        1.5057861988
 H       -10.1808777409       -3.0704159551        0.1404320649
 H       -11.7856921951       -2.4545492636       -0.0282268181
 H        -9.9525653919       -1.2403506257       -3.1490990754
 H       -11.3913909423       -1.8471983346       -2.0663653388
 H        -9.9181130515       -2.5470463183       -2.0122854391
 H        -8.2776647486        0.0860722605       -0.4292062219
 H        -8.4141651686        0.5757984241       -2.0361145980
 H        -8.1141420753       -1.1827751534       -1.6384516724
 H       -16.0156246982        0.9574833408       -0.4570702872
 H       -16.7287747633        1.2936516311       -2.0491578595
 H       -17.0637030165        2.3396422527       -0.5822283693
 H       -15.7431832301        3.0779872772       -3.4193758904
 H       -14.3340658040        3.9636306998       -3.0257044919
 H       -15.8411867969        4.4885148329       -2.3347419091
 H       -11.3778011760        6.2201823607        4.2326600345
 H       -12.6155128764        4.9348192090        4.6736937961
 H       -12.8154611059        6.0932836280        3.3424937997
 H       -10.4975308753        6.2541536649        2.1275456258
 H       -11.5995786946        5.4014504664        0.9732579943
 H       -10.0626807973        4.7308547771        1.1394567869
 H        -7.3613483604        0.6675192135        5.5722337155
 H        -6.4178232429       -0.0276058234        4.4210751536
 H        -8.1097467726        0.7340161154        4.0160536047
 H        -4.3743433334        1.9265694499        4.2079967677
 H        -5.1152811947        1.6105835308        5.5988923580
 H        -4.9211220083        3.3151633982        5.1429263937
 H        -7.6978359634        3.0937294114       -1.9601112130
 H        -6.5868962779        2.9389165756       -3.1725409144
 H        -7.6666412164        4.2822960252       -3.2679818848
 H        -5.2511169987        4.9969013730       -3.8603311513
 H        -4.1647777552        4.0978339662       -2.6771462500
 H        -4.3408585491        5.8428174248       -2.6346890334
 H        -9.9815399481        7.7559192977       -6.4298590101
 H       -11.3085312268        8.5449663018       -5.6652303575
 H       -10.9688294023        7.0017743499       -5.0844608514
 H        -8.7424095366       10.5263362447       -4.7265373139
 H        -8.9908827082        9.7549696795       -6.3172901137
 H        -7.5198729453        9.5315662658       -5.4647470737
 Na       -9.5240282564        1.8248989863        1.2396813629
