117

 C        -6.0224054252       -2.0947264145        4.8586823553
 C        -7.2320697384       -1.7729154918        3.9258531961
 O        -6.9376181979       -1.4419139220        2.7995676384
 C        -8.7755738922       -2.0840573707        4.3341928530
 C        -9.5503326358       -2.4577178927        2.9975582460
 O        -9.7607978103       -1.5279385456        2.2875485454
 C        -9.8181904073       -3.9803457226        2.7623879805
 C       -10.4020662092       -4.4789918330        1.3769606840
 C        -9.1873661061       -5.4415220109        0.7950063668
 O        -8.7600831689       -6.2918233566        1.5162559442
 C        -8.8080745289       -5.2335624079       -0.7131573825
 C        -8.6095068514       -3.7557067180       -0.8375564563
 O        -7.9733557049       -3.0739799618       -0.0014788799
 C        -9.2042392879       -2.8675672921       -1.9202801673
 C        -8.3621213130       -1.6998779071       -2.4060229963
 C        -8.7517953365       -0.2726596924       -1.8521035354
 O        -9.7914191396       -0.1795641739       -1.2649569261
 C        -7.9832325258        1.0410367211       -2.3086224764
 C        -7.5955673925        1.9949405094       -0.9095531438
 O        -7.7614228721        1.5218566711        0.1775120250
 C        -7.5284311497        3.5850684797       -1.1164499672
 C        -7.9702317399        4.4463102341       -0.0440705364
 C        -7.0273441290        5.7570079384        0.1508750315
 O        -5.9665034577        5.8028649719       -0.3140721685
 C        -7.4861901204        6.8556831310        1.1440377657
 C        -8.1980478996        8.1796126046        0.6812087958
 O        -8.0161877382        8.6271672714       -0.4302430403
 C        -9.1727155036        8.9589908154        1.6466394770
 C       -10.7030831457        8.9086917595        1.2800238321
 C       -11.3607119311       10.1820339418        1.9304076534
 O       -10.7661991291       11.2217550615        1.9927133716
 C       -12.9104930458       10.1955168179        2.2094763308
 C       -13.6102974628       10.3500947189        0.6921901408
 O       -14.4000298476        9.4257337231        0.3202720618
 C       -13.3472049175       11.4140743195       -0.2782267353
 C       -12.6434072973       10.6973840766       -1.4616706309
 C       -13.1897547170        9.3341051989       -2.0151443421
 O       -12.6976548082        8.3198775075       -1.5849740965
 C       -14.0580120112        9.1798050393       -3.3315570538
 C       -12.9703536394        9.5281515774       -4.6396050584
 O       -11.9861115435       10.1788644573       -4.3865142480
 C       -13.3633805832        9.2498607678       -6.0552792236
 C       -14.7382210700        7.7951786161       -3.6517255838
 C       -15.2752546652       10.3051224408       -3.3660670429
 C       -13.4695385601        8.8493825280        2.7235339890
 C       -13.4906434650       11.2433615885        3.0867910988
 C        -8.1280852423        6.1644610577        2.4587756018
 C        -6.0621918365        7.4268157740        1.5675949409
 C        -6.7464737877        0.7593275983       -3.1500002532
 C        -9.0006092641        1.8868959820       -3.1456030694
 C        -7.5520168302       -5.9858766851       -1.0365704214
 C       -10.0260638554       -5.7963462707       -1.6189527738
 C        -9.0307488748       -3.1545969020        5.6368436072
 C        -9.3991629719       -0.7342495919        4.7552588996
 H        -5.1598531461       -1.5224543238        4.6014718037
 H        -5.8246884017       -3.1461545886        4.5561337496
 H        -6.3647169253       -2.1171420032        5.9289113512
 H       -10.4838507902       -4.3854788757        3.5852222384
 H        -8.8646144933       -4.4648131681        2.9027151598
 H       -10.6198695316       -3.6307470313        0.6005653954
 H       -11.4907823052       -4.8554434406        1.3056033001
 H       -10.1214218544       -2.3645822168       -1.5548671898
 H        -9.6054277532       -3.4848734273       -2.7032597170
 H        -8.3705379221       -1.6011156786       -3.4757399110
 H        -7.2947609054       -1.8841519051       -2.2187009874
 H        -7.9069484314        3.7796366786       -2.0886367696
 H        -6.4422023259        3.9416660447       -1.3943760602
 H        -7.9110335422        4.0401858688        0.9192916338
 H        -8.9650463977        4.9705226943       -0.0611174040
 H        -8.8545933083        9.9990848115        1.5613159860
 H        -9.0845921990        8.7915447155        2.7205283089
 H       -11.3628782561        8.0291319538        1.4406020984
 H       -10.7368314750        9.2165751362        0.2207759740
 H       -12.6627030351       12.2752462470        0.0001869625
 H       -14.2953609393       11.9219763381       -0.5101006595
 H       -11.6348942441       10.3594961852       -1.1612100941
 H       -12.6495966556       11.3661760288       -2.2790263998
 H       -14.2797632228        9.7926698625       -6.2519247719
 H       -13.5689439958        8.2649510437       -6.4057336367
 H       -12.5864014066        9.5939831724       -6.6892394673
 H       -15.3809394005        7.6292977862       -2.7650358101
 H       -14.0906802770        6.9162694271       -3.6458569177
 H       -15.1711124775        7.9280258385       -4.6227776283
 H       -14.9420141196       11.2838818736       -3.6834570689
 H       -15.8783995977       10.3599696454       -2.4380481650
 H       -16.1313218690       10.0217809278       -3.9739323054
 H       -14.3290360878        8.9386897337        3.2735972540
 H       -12.7007595243        8.3034246325        3.3572772647
 H       -13.8372641623        8.2639858431        1.9443205137
 H       -13.4314292382       10.8809922570        4.1135578102
 H       -14.5926127109       11.2297739858        2.8400244507
 H       -13.0546836083       12.2941887387        3.0598146913
 H        -9.2160488830        5.8951097240        2.3640521161
 H        -8.1732200061        6.6465489837        3.3871116247
 H        -7.5156250380        5.2563421247        2.5820104607
 H        -5.5344811886        6.6342300514        2.0635162773
 H        -6.0031174024        8.2592326910        2.1653136313
 H        -5.4984751283        7.6547294167        0.6611669893
 H        -6.9960047040        0.5019202106       -4.2059817473
 H        -6.0427745671        0.0200496363       -2.7409612321
 H        -6.0930140887        1.5769325292       -3.3146205858
 H        -8.7335624496        2.9012344949       -3.4218967887
 H        -9.9954101911        2.0825333448       -2.7857236361
 H        -9.0663280096        1.2897761581       -4.0989591915
 H        -6.8678883843       -5.5301387051       -0.3951470149
 H        -7.3352421229       -5.7810787469       -2.0757369047
 H        -7.7985261589       -7.1506603332       -1.0468632764
 H       -10.3659126490       -6.8212420879       -1.1011027329
 H        -9.7825939520       -5.8939648906       -2.6453651622
 H       -10.8469142520       -5.1533111410       -1.4338517037
 H        -8.5550718039       -4.1305980446        5.3460158489
 H       -10.1419395074       -3.2833741062        5.8200142167
 H        -8.5948690783       -2.7079009644        6.5013699976
 H       -10.4137154866       -0.8420400984        5.1658360981
 H        -9.3599966625       -0.1166881198        3.8904523609
 H        -8.9611834983       -0.4056420473        5.6283986322
 Na       -7.9703048515       -0.7771771255        0.7525066305
