117

 C        -6.0835822033       -2.1181598981        4.9972865837
 C        -7.2039390637       -1.9338937344        3.9712766777
 O        -6.9436442346       -1.4157029873        2.8789464579
 C        -8.8016638397       -2.0013627033        4.3869066147
 C        -9.5724588052       -2.3931621744        3.1383576381
 O        -9.7838257689       -1.5902522658        2.2283625548
 C        -9.9524200913       -3.9293042223        2.9747267505
 C       -10.3748634112       -4.5305022830        1.6260727128
 C        -9.3823566479       -5.4603737853        0.8924906572
 O        -8.8044650573       -6.2481464496        1.5996129121
 C        -8.9892092236       -5.2457993996       -0.6491568397
 C        -8.6223065901       -3.6526993929       -0.9286472676
 O        -7.8602677330       -3.2152996531       -0.0797165739
 C        -9.2429643957       -2.7566445581       -2.0756214515
 C        -8.3195407387       -1.6435122096       -2.5599880714
 C        -8.7399377558       -0.3095359025       -1.9330451713
 O        -9.7579071517       -0.2636187330       -1.2871534596
 C        -8.0026778198        1.0520609750       -2.2800424398
 C        -7.7583526015        1.9931729002       -0.9950278625
 O        -7.6539701673        1.5042446203        0.1058721684
 C        -7.5140273951        3.5366651116       -1.0698532537
 C        -7.8636630027        4.3321001270        0.1529748198
 C        -6.9389998690        5.6409704906        0.2333481231
 O        -5.9625949324        5.6062050443       -0.4427800179
 C        -7.2479274272        6.8154811932        1.1880563484
 C        -8.2784331042        8.1623797419        0.5418012339
 O        -7.9526765202        8.5213370946       -0.5771792434
 C        -9.2053811063        9.1028713475        1.3420237484
 C       -10.6933590152        8.8900259105        1.0547490680
 C       -11.5024146524       10.1505748199        1.6235256629
 O       -10.8503230790       11.1862392127        1.8357219062
 C       -13.0325796223       10.1074274231        2.0706430296
 C       -13.7470291519       10.3213916226        0.7161580075
 O       -14.3924074755        9.3621378191        0.2620551843
 C       -13.4109890760       11.4599020484       -0.1930439489
 C       -12.6133630363       10.7022869182       -1.3932012946
 C       -13.2007985575        9.2827038221       -1.9761996344
 O       -12.8178474911        8.1827533459       -1.5181614687
 C       -13.9699950231        9.2967996197       -3.3982673825
 C       -13.0003665834        9.6153547851       -4.5652183910
 O       -11.9417560183       10.2237667693       -4.3796733867
 C       -13.4262463375        9.1128542309       -5.9641627304
 C       -14.6475844397        7.9036820905       -3.5331999849
 C       -14.9902115209       10.4589396278       -3.4276061714
 C       -13.4811999062        8.7932765651        2.8367388674
 C       -13.3443747434       11.4316232126        2.9161057711
 C        -7.8849333966        6.3846448589        2.5049312103
 C        -5.9689086125        7.5668102860        1.5784491366
 C        -6.8850344786        0.8097248172       -3.2889119558
 C        -9.0208746113        2.0080257299       -3.0135761913
 C        -7.6305730604       -6.1633243259       -0.8500615908
 C       -10.0145764070       -5.7195483039       -1.7190885820
 C        -8.9353230457       -3.0374525323        5.6345036641
 C        -9.4761532981       -0.7308970266        4.9762931274
 H        -5.2940125526       -1.3698890240        4.7699367903
 H        -5.6176747153       -3.1308532908        4.9068789676
 H        -6.5916891846       -1.9919014850        5.9433046632
 H       -10.8752168053       -4.0320930068        3.4957464743
 H        -9.3289397291       -4.6375894814        3.5033602275
 H       -10.9445517105       -3.9605411063        0.8252878894
 H       -11.2637164746       -5.0878345915        1.8632176514
 H       -10.2001658216       -2.3063969361       -1.6543626876
 H        -9.6323802715       -3.3973052986       -2.8138503198
 H        -8.2819250836       -1.4828722542       -3.6507515070
 H        -7.2977128727       -1.9570410420       -2.3422868403
 H        -7.9009550359        4.0240822026       -2.0836679747
 H        -6.4981238537        3.5198937149       -1.4212574226
 H        -7.6593216632        3.8278543767        1.1446672225
 H        -8.8803146341        4.6576283775        0.1566957351
 H        -8.8519447312       10.1344528820        1.2878819016
 H        -9.1901516968        8.9140370454        2.3813188608
 H       -11.1562519018        8.0834479141        1.5391691314
 H       -10.9786646675        8.8891614201       -0.0031621708
 H       -12.7566506262       12.3395713663       -0.0527779908
 H       -14.3997974596       11.9709415399       -0.4442343193
 H       -11.6164376159       10.3347410847       -0.9445960949
 H       -12.4582153458       11.3982838570       -2.1917526980
 H       -14.2415567898        9.6389307685       -6.5914439192
 H       -13.7660695838        8.1277472101       -5.8533197181
 H       -12.5527367681        8.8756855630       -6.6458216303
 H       -14.9585398772        7.7144819164       -2.4736719400
 H       -13.9980051678        7.1088305577       -3.7320623045
 H       -15.3297132575        7.8980809397       -4.3255960721
 H       -14.6678317353       11.4596355443       -3.5241315720
 H       -15.6966825686       10.2579932733       -2.6379575509
 H       -15.7900288962       10.2352461023       -4.1572420513
 H       -14.4485850956        9.0594063265        3.3094493337
 H       -12.7254934559        8.6047166889        3.6184948915
 H       -13.7789475630        7.8837381221        2.3073751338
 H       -13.1680241304       11.3665623504        4.1165581558
 H       -14.3861576423       11.7652157463        2.7593041220
 H       -12.6340849659       12.1707645740        2.5175590581
 H        -8.9063969247        6.0251473331        2.2005629163
 H        -8.1602781834        6.9426965558        3.3541578693
 H        -7.2517581349        5.4223398642        2.7973039643
 H        -5.2379450482        6.7712520550        1.7934102475
 H        -5.8567870343        8.2641084471        2.4986075157
 H        -5.6203642552        8.1074201369        0.7751798065
 H        -7.4274844429        0.8502097021       -4.2871365118
 H        -6.2406145677       -0.1066631641       -3.2556432476
 H        -6.0852876326        1.5440081201       -3.4498072599
 H        -8.6157026002        2.7952521282       -3.6181169975
 H        -9.6231291884        2.6058754974       -2.3858132224
 H        -9.6527883995        1.4072267001       -3.6803376994
 H        -6.8961560137       -5.6491171464       -0.2153197399
 H        -7.3876636096       -6.2525781999       -1.8262443930
 H        -7.9831930661       -7.1377884392       -0.5327402682
 H       -10.2614251371       -6.7343168463       -1.6893752120
 H        -9.4155714403       -5.4064915501       -2.6858841663
 H       -10.9987901007       -5.1255473391       -1.6453738447
 H        -8.4555918146       -3.9793738068        5.3605541062
 H        -9.9622077355       -3.1884375088        5.8507429950
 H        -8.5307062724       -2.5434967098        6.5000253369
 H       -10.4419847423       -0.9243963300        5.3836110231
 H        -9.5045376673        0.0666416773        4.1088161446
 H        -9.0318696264       -0.4600112989        5.9680454259
 Na       -7.9800516167       -0.8051595758        0.7610639943
