117

 C        -6.4020252068       -1.8966301877        5.2632725313
 C        -7.4369757200       -1.6330683822        4.1452897206
 O        -7.0105388998       -1.4556255294        3.0338190098
 C        -8.9613150016       -1.9211601613        4.4870645641
 C        -9.8199831811       -2.3568767943        3.1642767149
 O        -9.6243516964       -1.8244543560        2.0948288842
 C       -10.6647761030       -3.6816620226        3.2087539617
 C       -10.9073575787       -4.3558419096        1.8493253565
 C        -9.5920176865       -4.8585331747        1.2287734353
 O        -8.7593697367       -5.3376800377        1.9565365992
 C        -9.2826025436       -4.7559257661       -0.3105069410
 C        -8.5589902360       -3.3904079903       -0.6828053492
 O        -7.8334888538       -2.7656576560        0.0983278632
 C        -8.8954319291       -2.7484133638       -2.1059786594
 C        -8.1586115097       -1.4262342507       -2.3580970441
 C        -8.7786799856       -0.3631634385       -1.5053831251
 O        -9.6395297617       -0.6262678053       -0.6892671479
 C        -8.3872893422        1.1458403119       -1.8803509081
 C        -7.6734868062        1.9504067068       -0.6321581016
 O        -7.6274719965        1.4236600530        0.4316234680
 C        -7.6322882152        3.4340242162       -0.9059421680
 C        -7.2751174374        4.2191402650        0.3790866611
 C        -6.5417209609        5.4686852084        0.0540415604
 O        -5.6955935846        5.5573893169       -0.7677166661
 C        -7.1749680284        6.7527558993        0.7906425039
 C        -8.3986198414        7.2672363168       -0.0931428897
 O        -8.9621389011        6.5051045773       -0.9125749603
 C        -8.9649882116        8.6450993964        0.2544203473
 C       -10.3387219623        8.6079876415        0.9667031589
 C       -11.0830231048        9.9327583709        1.0975232569
 O       -10.6180604005       10.9174174739        0.6158753382
 C       -12.4164435928        9.9657310492        1.8157695109
 C       -13.6518995568       10.1545743391        0.8141964244
 O       -14.7239242783        9.5428040635        1.0348173490
 C       -13.6986122475       11.2734132246       -0.2197199544
 C       -12.7916215964       10.8960527665       -1.4582325859
 C       -12.9837585622        9.5205393279       -2.3356172088
 O       -12.3440887070        8.5543261426       -2.0275840763
 C       -13.8602292918        9.4606049257       -3.5811595644
 C       -12.7517846358        9.2911123899       -4.7204364662
 O       -11.8653711067       10.1451038148       -4.7115128729
 C       -12.7935525641        8.2483822663       -5.8791507750
 C       -14.7543003188        8.2746068634       -3.6046936999
 C       -14.8430230658       10.7180576105       -3.8908424501
 C       -12.8907932512        8.6531941909        2.6462300161
 C       -12.1943665580       11.0558114668        2.9582588729
 C        -7.8372042239        6.4749584946        2.1124249050
 C        -6.0349134159        7.7176500465        0.9359050849
 C        -7.5366170184        1.2704290561       -3.2040771806
 C        -9.7914647018        1.9207583349       -1.9127520607
 C        -8.2795341131       -5.9110460108       -0.7977801469
 C       -10.5176167555       -4.8504243668       -1.2521436848
 C        -8.9433142447       -3.1959707857        5.4635154132
 C        -9.6313996266       -0.7518516462        5.1627745328
 H        -5.5593055282       -2.3414512169        4.7847992301
 H        -6.7821732813       -2.7338933543        5.8320193146
 H        -6.0684982238       -0.9793829652        5.8150387901
 H       -11.6346281763       -3.3541029638        3.6231542568
 H       -10.3585036087       -4.3127884432        4.0025856594
 H       -11.3875741198       -3.6004254855        1.2586397348
 H       -11.6128954442       -5.1375806695        1.9592457501
 H        -9.9587138603       -2.5031543612       -2.1540454521
 H        -8.5969625015       -3.4825001833       -2.9391102867
 H        -8.3590579307       -1.2277506061       -3.4105794570
 H        -7.0557489921       -1.4895027857       -2.1794966898
 H        -8.5239489351        3.7019164807       -1.3765542896
 H        -6.8888324623        3.5624038465       -1.6436854127
 H        -6.7419949404        3.6816822695        1.1471814087
 H        -8.3453266034        4.4444681475        0.7854143568
 H        -9.1016087094        9.1256258030       -0.7231624352
 H        -8.2497627729        9.1964329610        0.8826261178
 H       -10.3382302304        8.1013012048        1.9721676461
 H       -10.8868777204        7.8832961084        0.3874515074
 H       -13.4043295767       12.2314050625        0.2455071940
 H       -14.6849472628       11.4607436816       -0.6049179837
 H       -11.7173466179       10.9325219632       -1.0782417376
 H       -12.7766320696       11.6898190473       -2.2352416935
 H       -13.4187596748        8.8610584626       -6.6139176872
 H       -13.2661367382        7.3152221729       -5.6883084481
 H       -11.9471708003        7.9492112309       -6.6098060582
 H       -15.5528407419        8.3828809174       -2.8500281606
 H       -14.1880930258        7.3456969578       -3.4093070918
 H       -15.2563699355        8.2626103837       -4.5323148764
 H       -14.2253686358       11.6228276986       -4.0079506188
 H       -15.4256575626       10.9452082955       -2.9368448731
 H       -15.4644452507       10.7658055948       -4.8032022287
 H       -13.4916143658        9.0902150133        3.4102017038
 H       -12.0610063731        7.9517566023        3.0998926261
 H       -13.3638746674        7.9335706210        1.9873595569
 H       -12.0904601535       10.4701874880        3.9004145903
 H       -13.1192784859       11.5687986251        3.0656069488
 H       -11.3985287560       11.7737336961        2.8228700447
 H        -8.7950397484        5.8726812362        1.8731563490
 H        -8.0421466570        7.2836245919        2.7429549653
 H        -7.2629385325        5.7192659313        2.7606708040
 H        -5.7872249819        7.6674643235        2.0814143461
 H        -6.0807578785        8.8380626295        0.7037094003
 H        -5.1013704184        7.3685182491        0.5056055631
 H        -8.1905735367        1.1566061241       -4.1276501421
 H        -6.8585017039        0.3691115478       -3.3487801252
 H        -6.9767157773        2.1848148818       -3.3052109920
 H        -9.7642186139        2.8489389952       -2.4472762472
 H       -10.2361203028        2.0491965778       -0.9500106816
 H       -10.5593763468        1.4327253681       -2.5152825409
 H        -7.2760394165       -5.7853862217       -0.2927596960
 H        -8.1581890165       -5.8567255681       -1.8600185660
 H        -8.6168453022       -6.8772285942       -0.3224739776
 H       -10.9937983154       -5.8612147771       -1.2423670440
 H       -10.1897435318       -4.7825667402       -2.3145252644
 H       -11.2927136233       -4.0640442387       -1.1683246826
 H        -8.3740574925       -4.0036391564        4.9874542485
 H        -9.9376397263       -3.5839566864        5.6684214069
 H        -8.4883247829       -2.9832013844        6.3623245806
 H       -10.7538594552       -0.9418990792        5.0704305226
 H        -9.3368863959        0.2190611490        4.6332910130
 H        -9.1757973117       -0.5787634519        6.1370034301
 Na       -7.8130300505       -0.5493846071        1.1011839692
