117

 C        -7.7997497340       -6.7419205653        1.8777220468
 C        -7.9525904842       -5.7783798533        3.0790302077
 O        -7.3637192447       -5.7358900120        4.1496667318
 C        -8.7395679299       -4.4238691542        2.8260321664
 C        -9.8611773013       -4.4727243835        1.7718229538
 O        -9.7235170358       -4.9028571224        0.6483769563
 C       -11.1025437218       -3.6207465093        2.0785981918
 C       -12.1953209481       -3.5329062132        0.9879245537
 C       -12.4157890017       -2.1069575584        0.4043902852
 O       -11.8599842127       -1.7668934780       -0.6615956262
 C       -13.2429892350       -1.0973534669        1.2754485244
 C       -12.3023637357        0.1114498551        1.4062360917
 O       -11.9040066281        0.5039767534        2.4764631562
 C       -12.0045283518        0.9093586142        0.0934559730
 C       -10.4477349492        1.1856626042        0.1184130539
 C        -9.8955385600        2.2287446696       -0.7642612154
 O        -9.6404499941        3.3365605348       -0.2598868991
 C        -9.6936923903        1.8986759604       -2.2553982997
 C       -10.7204828740        2.7758923289       -3.1003635578
 O       -11.8856712469        2.7582210079       -2.7574382332
 C       -10.4439405845        3.5405398843       -4.3329055189
 C       -11.2798249278        4.7994735177       -4.4606048084
 C       -10.7875820916        5.6986190647       -3.2485569472
 O        -9.8740952170        5.2093095828       -2.5993916371
 C       -11.5723773190        6.9251358821       -2.6251472463
 C       -10.7170090920        8.1389175287       -2.1146792454
 O        -9.7472178156        7.9325581558       -1.4233256108
 C       -11.1822712571        9.5169187336       -2.3837349463
 C       -10.2323550211       10.6306704411       -2.1410678559
 C       -10.2794745280       10.9855043353       -0.6057308936
 O       -11.2744267660       10.7642468116        0.0071282941
 C        -9.0586557575       11.6083312292        0.0774538023
 C        -8.3147211596       10.4023454419        0.8938261288
 O        -7.1176114906       10.1186848816        0.6857619154
 C        -9.0642320021        9.6525097148        2.0241279635
 C        -8.1241576043        8.5222643648        2.5289038843
 C        -7.9877994701        7.2483119046        1.7513761585
 O        -9.0041875286        6.6030432335        1.4068278894
 C        -6.5579082860        6.7669343340        1.3306267480
 C        -6.2619798413        7.0297213656       -0.2159618486
 O        -7.0052286948        6.7182413481       -1.1307472156
 C        -4.9708303169        7.7460924445       -0.5176329307
 C        -5.4937365866        7.3121416961        2.2968952088
 C        -6.5763631270        5.2162432268        1.4414956220
 C        -8.0211922491       12.3501593934       -0.9635939563
 C        -9.4273258780       12.5755242902        1.2503853245
 C       -12.7022448602        7.3140421088       -3.6353096185
 C       -12.1612143598        6.3481530886       -1.3745970749
 C        -8.1252097982        2.2924780014       -2.6364408199
 C        -9.8533328604        0.3663383720       -2.6699383462
 C       -14.4474869764       -0.5339531362        0.4268707807
 C       -13.5633016563       -1.5886659484        2.6837041288
 C        -9.2102318177       -3.8123161569        4.1703620527
 C        -7.6488654795       -3.4565401095        2.0561757789
 H        -7.0758518480       -6.2780720716        1.1710473093
 H        -8.8500192809       -6.7880530876        1.3820776573
 H        -7.6221410525       -7.8112131202        2.0493882334
 H       -10.6612353534       -2.6313417185        2.2010192773
 H       -11.4660659298       -3.7251114868        3.0715768530
 H       -13.0909712201       -3.9352745852        1.4638217699
 H       -11.9668013238       -4.2135780418        0.2125524260
 H       -12.5954157270        1.8359716542        0.1090838180
 H       -12.2237100319        0.4121362992       -0.9081844192
 H       -10.0024860544        0.2083509635       -0.0168848853
 H       -10.1614292571        1.5262954957        1.1101912156
 H       -10.6707356337        2.8987928095       -5.2394136398
 H        -9.3353959880        3.7508705572       -4.4444963121
 H       -12.3725052671        4.6019512647       -4.3854891901
 H       -11.1508279373        5.1158399390       -5.4929337994
 H       -12.1063364441        9.7253279475       -1.7645612984
 H       -11.5637493789        9.5250179544       -3.4719386128
 H       -10.4515217691       11.4722294232       -2.7851733758
 H        -9.1536438049       10.2869612062       -2.4982939881
 H        -9.9348587016        9.1430724560        1.6855438501
 H        -9.4458077626       10.3577128790        2.7912146608
 H        -8.4571458507        8.2146991672        3.5639013628
 H        -7.1058314142        8.8638323020        2.6043478359
 H        -5.0000730851        8.8126702085       -0.3643757312
 H        -4.7251976671        7.5781028902       -1.6199840204
 H        -4.2027856261        7.2600866323        0.0014862686
 H        -5.7842373688        7.0799338826        3.3221656304
 H        -5.2775823808        8.3694000824        2.1832881766
 H        -4.6373928906        6.6952407976        2.1957658103
 H        -7.1508580221        4.9001878757        2.3412646238
 H        -5.6493974488        4.6773153245        1.5281293840
 H        -6.9500213854        4.7503760426        0.4970332160
 H        -7.0980398177       12.6440588900       -0.4901142551
 H        -8.3954769322       13.2157941897       -1.4482191582
 H        -7.8530515315       11.4890292088       -1.6435806714
 H       -10.4635425266       12.4841529321        1.5500575616
 H        -9.3463309085       13.5849243325        0.8683921030
 H        -8.9393344822       12.5179638933        2.2078411299
 H       -13.2793116298        6.4928175500       -3.9800554527
 H       -12.1944986913        7.8113011457       -4.4448036664
 H       -13.5051142129        7.9223693047       -3.0976841974
 H       -12.5872900294        5.4073193295       -1.6385248664
 H       -12.8721482340        7.1604820049       -0.9518208117
 H       -11.4286483630        6.1951220286       -0.5707173123
 H        -7.7853661212        1.7329093548       -3.4834771082
 H        -7.5515541010        2.2399640622       -1.6323570431
 H        -8.1292955059        3.3745949553       -2.8253736289
 H       -10.8430535190       -0.0250927693       -2.4019773906
 H        -9.1334171768       -0.3541392485       -2.2005200937
 H        -9.6848520941        0.3252525782       -3.7245460196
 H       -15.1550806182       -1.3343822535        0.2967863693
 H       -14.2510457859       -0.2536316814       -0.6085853619
 H       -15.0180530076        0.3221874315        0.8965864593
 H       -14.1741209693       -2.5082095722        2.6205013038
 H       -14.1543776946       -0.8195851754        3.2894322439
 H       -12.6037188247       -1.6132168792        3.2058104800
 H       -10.0201781464       -4.2713545479        4.6699585143
 H        -9.3252782652       -2.7396852614        4.0117170638
 H        -8.3944263931       -3.7343245844        4.8129965127
 H        -6.8094657151       -3.3454933558        2.7880437052
 H        -8.0506825789       -2.4328157067        1.8384887524
 H        -7.2232975871       -3.8761094645        1.1762884421
 Na       -9.1037533273        5.8189293225       -0.6265235715
