117

 C       -11.5174070081        8.7568153669       -2.7232088844
 C       -10.3394018531        9.3446177951       -3.4199617037
 O        -9.8107005266       10.3291030313       -3.0002576227
 C        -9.6038008350        8.5533494646       -4.5816511037
 C        -8.6990792965        7.4120883303       -3.8616122936
 O        -8.5419436671        6.2412152557       -4.1856648313
 C        -7.8411213814        7.9576997957       -2.6835370680
 C        -6.4804276554        7.2119121230       -2.5336849249
 C        -6.7620944759        5.9746800767       -1.5969579247
 O        -7.4798060478        6.0847697654       -0.6016357266
 C        -6.0053648419        4.6105361409       -1.9107961963
 C        -5.4875014798        3.9567559236       -0.5586480307
 O        -4.4251856423        3.4097595768       -0.6353074250
 C        -6.4484460577        3.8649293843        0.6791158046
 C        -5.6988704542        3.3426424664        1.9044790535
 C        -6.5654084027        2.2398411023        2.5391564270
 O        -7.4278818378        1.6542438132        1.9093955462
 C        -6.5444669148        2.1236762002        4.1401028330
 C        -7.3732624032        3.3408392196        4.6130383818
 O        -7.1283980423        4.4923986886        4.2216794771
 C        -8.5840694189        3.2463800967        5.5616838253
 C        -9.7707902020        4.1530296639        5.0776839172
 C       -10.2056996356        3.7642259054        3.7222008832
 O        -9.7042810453        2.7577692245        3.2168772873
 C       -11.3781014898        4.4878199356        2.9497361071
 C       -12.3869496583        3.4107986831        2.4428028545
 O       -11.8661348953        2.4278130566        1.8709582028
 C       -13.9280659323        3.6987515147        2.4003780655
 C       -14.5523629625        2.7407052382        1.2549002443
 C       -14.5678565450        3.3878747545       -0.0463875751
 O       -14.0989567320        4.5161607634       -0.2596235232
 C       -14.9354305209        2.5595467672       -1.3176203680
 C       -13.7407421220        1.6335817501       -1.5833746907
 O       -13.6487446597        0.6758687721       -0.8468140433
 C       -12.7174343076        1.9982081697       -2.6700879966
 C       -11.5447063378        0.9030562097       -2.8010008414
 C       -10.8730599580        0.8264095434       -1.4969184239
 O       -10.7210989748        1.8616618127       -0.8915892899
 C       -10.0537285445       -0.5477190028       -1.0897939386
 C       -10.3490716093       -1.0146942805        0.3821837975
 O       -10.1456146040       -0.2784418607        1.3583216490
 C       -10.9606090773       -2.4341945700        0.5317477982
 C       -10.4495403475       -1.6551513871       -2.1521216591
 C        -8.4912727662       -0.2088883160       -1.2517428164
 C       -16.1717930991        1.7437454206       -0.9180037638
 C       -15.2317702202        3.6063294837       -2.4186407694
 C       -11.9367320219        5.5930393297        3.9119218971
 C       -10.8978928103        5.1589142881        1.6212067726
 C        -7.0598532125        0.7153062648        4.5810729841
 C        -5.0657151487        2.3936676712        4.8439748361
 C        -7.0784074953        3.5815673974       -2.4429490239
 C        -4.8153815254        4.6849325953       -2.9576313330
 C       -10.5448919081        7.6950359462       -5.5318494477
 C        -8.6770898958        9.5670099612       -5.3713089454
 H       -11.2019845540        7.8937675182       -2.2096928971
 H       -12.4059555842        8.4810077885       -3.2986520624
 H       -11.9566744689        9.5121719199       -2.0777688274
 H        -8.3934356747        7.8841902686       -1.6576981942
 H        -7.5826001433        9.0273604460       -2.8781903615
 H        -5.5975474094        7.8406041548       -2.2863571509
 H        -6.2463939465        6.7618414570       -3.4981959598
 H        -7.2261783071        3.1416644672        0.3032893304
 H        -6.9830499479        4.8329367979        0.9142447880
 H        -5.6715262015        4.1519550521        2.7189867602
 H        -4.7133295800        3.0061216356        1.6569371638
 H        -8.4432503716        3.7259654057        6.5776472891
 H        -8.9761948129        2.2383701592        5.7710687304
 H        -9.4784528698        5.2167534786        5.2641774012
 H       -10.5294383315        4.1460047841        5.8302822169
 H       -14.1084682412        4.6658828484        2.0489711770
 H       -14.3966617428        3.5347778599        3.3593219417
 H       -15.5641416671        2.4731546627        1.5901945341
 H       -13.9580334570        1.8080859477        1.2158600830
 H       -12.3101222872        2.9665038834       -2.4411933124
 H       -13.2849140811        2.1400087129       -3.6094942879
 H       -10.6663565339        1.2667249232       -3.5147678091
 H       -12.0565132100        0.0182525413       -3.2412793139
 H       -11.2618079568       -2.6690984762        1.5437367868
 H       -10.1566245193       -3.1813379600        0.4424269609
 H       -11.8513563710       -2.7912454093       -0.0361957534
 H        -9.9763984648       -1.3536535786       -3.1189300009
 H       -11.4732103720       -1.9729877585       -2.0356217767
 H        -9.8992354447       -2.5776364669       -1.9792547363
 H        -8.0949698716        0.1195383931       -0.3381469633
 H        -8.3418221220        0.6688693849       -1.9634982605
 H        -7.9633785275       -1.1119839865       -1.5733412934
 H       -16.0723121403        1.1801863516       -0.0035156385
 H       -16.5385596999        1.0297184051       -1.7234443289
 H       -16.9710724669        2.5500589409       -0.7326579496
 H       -15.7063963372        3.2058885244       -3.3114432287
 H       -14.3221651264        4.0828009635       -2.8858308474
 H       -15.9153784793        4.4057494405       -2.1052532083
 H       -11.1012242321        6.3048751099        4.1727948574
 H       -12.4445114731        5.0733690066        4.7792121662
 H       -12.6116345552        6.3084363398        3.4792299088
 H       -10.2339601614        5.9750104662        1.8937958750
 H       -11.7010522224        5.5648938969        1.0501361139
 H       -10.4123312096        4.4413252697        0.9362377573
 H        -6.8962147633        0.5199166616        5.6654122533
 H        -6.4019392942        0.0311376693        4.0750662820
 H        -8.0715448526        0.6635349672        4.3585694691
 H        -4.2901128979        1.8177185318        4.4099058120
 H        -5.0388829276        2.1195419450        5.8542383232
 H        -4.8514721438        3.4706911863        4.7666015574
 H        -7.7876761856        3.2238111603       -1.6929363120
 H        -6.6531553984        2.7027087165       -2.8202970019
 H        -7.6494746071        4.0304009117       -3.2896449512
 H        -5.2412346515        4.7267819387       -3.9975261326
 H        -4.2150653049        3.8322232459       -2.6858722253
 H        -4.2314617754        5.6063863685       -2.8630865554
 H        -9.9659958422        7.3901440571       -6.4025230815
 H       -11.4416137835        8.2363952332       -5.8504757407
 H       -10.9943907004        6.7993411875       -5.0455748064
 H        -8.6432732959       10.4783014267       -4.7792753151
 H        -8.9778922120        9.7882849508       -6.4103356953
 H        -7.6297002190        9.2752178684       -5.4571120599
 Na       -9.6661817669        1.9026308105        1.0212891563
