117

 C        -6.5157305775       -2.1746780742        5.6884209189
 C        -7.6188409451       -1.8217051487        4.5773006061
 O        -7.1892488266       -1.5725649162        3.4594492445
 C        -9.0649370486       -1.7918535314        5.0231846353
 C        -9.8214125265       -2.1911660957        3.7238913812
 O       -10.0395396067       -1.4231996187        2.8101426869
 C       -10.6731481598       -3.4663768842        3.5063402963
 C       -11.0626883787       -3.9258825217        1.9730057444
 C        -9.7553514427       -4.3997322801        1.2671325787
 O        -8.8133622862       -4.8253680647        1.9344376737
 C        -9.4714779464       -4.3845638575       -0.2849601397
 C        -8.5126821009       -3.2074915351       -0.7308217451
 O        -7.6090064666       -2.8364617456       -0.0079482042
 C        -8.6712938065       -2.6391149450       -2.1074681782
 C        -8.1572097207       -1.2349432734       -2.2988427964
 C        -9.1017973130       -0.3227100537       -1.4917033639
 O        -9.9483280737       -0.8722714759       -0.8012402784
 C        -8.9234098095        1.2127801432       -1.6801042414
 C        -7.9731777709        1.9089811768       -0.6475330812
 O        -7.8249417639        1.4263238151        0.4767262544
 C        -7.4146371251        3.4442305587       -0.9578474915
 C        -6.6737842450        3.9895441810        0.2033158396
 C        -6.1936556221        5.4607268842       -0.1388525629
 O        -5.1291356579        5.6514808482       -0.6079306609
 C        -7.0879515591        6.7345973560        0.3416938714
 C        -8.5756682056        6.5693344096       -0.1793473027
 O        -9.0781430669        5.5245410859       -0.0839293915
 C        -9.5194946558        7.6459669990       -0.8435283128
 C       -10.6457590943        8.0118603774        0.0252913009
 C       -10.6218434705        9.4747800808        0.4540949931
 O        -9.7066028666       10.2369720432        0.1667084847
 C       -11.8487295425        9.8227879984        1.3260374102
 C       -13.2234128186       10.2357033575        0.5000737683
 O       -14.2616884364        9.6376658642        0.7949785937
 C       -13.5055805473       11.4797617672       -0.3819365106
 C       -12.8343387441       11.2405437959       -1.8135003935
 C       -13.1888113221        9.7614704136       -2.2542599477
 O       -13.0467422397        8.8806981497       -1.4187695541
 C       -13.7664125488        9.4565283646       -3.6222057700
 C       -12.5261963015        9.2249581815       -4.6660661160
 O       -12.0165935927       10.1057698440       -5.2812668894
 C       -12.1145163174        7.8735392971       -5.2063909937
 C       -14.6472819296        8.2397966084       -3.6905841182
 C       -14.5454319322       10.7032547925       -4.0883561086
 C       -12.3315668747        8.6211612586        2.2060754637
 C       -11.3621758758       10.9629670485        2.3109428231
 C        -7.1848698663        6.8457788673        1.8591244339
 C        -6.3694817919        8.0816680188       -0.2821648695
 C        -8.5586320508        1.5933456117       -3.1307351785
 C       -10.2385007569        1.9554802350       -1.2903063810
 C        -8.5123234432       -5.6570057533       -0.3897139863
 C       -10.6830511977       -4.4093146484       -1.1758068769
 C        -9.5025050789       -2.9204039363        6.0054827976
 C        -9.4853018371       -0.4229375785        5.6001667131
 H        -5.7005791929       -1.4628967034        5.4593641751
 H        -6.0151294612       -3.1274898126        5.5068640196
 H        -6.8950308004       -1.9749019248        6.6872300139
 H       -11.5673928488       -3.2246971127        4.1374864748
 H       -10.0867683520       -4.2630403564        4.1244959301
 H       -11.7000824532       -3.0763127649        1.6081301101
 H       -11.6964832997       -4.8689290297        2.3058079118
 H        -9.7636169397       -2.5294894622       -2.2462963727
 H        -8.2247238923       -3.3421903404       -2.8066378017
 H        -8.3060138711       -1.0874778165       -3.3913025875
 H        -7.1134806282       -1.0986606966       -2.0267284222
 H        -8.2322881605        4.1752996627       -1.0965585484
 H        -6.4716977930        3.5166976381       -1.7267557213
 H        -5.7925565228        3.3656430241        0.2741076088
 H        -7.2619358249        3.8722884299        1.0635916549
 H        -9.9302544721        7.1891386231       -1.7380481008
 H        -8.9011161030        8.5599396308       -1.1088783309
 H       -10.5682121865        7.3126271981        0.9219144312
 H       -11.7048327420        7.6869328445       -0.2490518595
 H       -13.0682273974       12.3802378749       -0.0673733944
 H       -14.5484750956       11.4834339613       -0.6919849035
 H       -11.7997274338       11.2853200618       -1.7730822389
 H       -13.1503521900       12.1058912631       -2.4180435263
 H       -12.8845202103        7.2275192794       -5.5030266856
 H       -11.6436162822        7.2427298053       -4.4142845036
 H       -11.4494950833        7.9361398794       -6.0580664586
 H       -15.4978855862        8.3961852269       -3.0934118320
 H       -14.0615186471        7.3669797790       -3.3846539186
 H       -15.0045306944        8.0561981893       -4.7725475272
 H       -13.8473695593       11.6123299897       -4.1069356606
 H       -15.2488483226       11.1023999831       -3.3599328614
 H       -15.0216889742       10.5126668361       -5.0801916923
 H       -12.7296099338        9.0102333998        3.1588723103
 H       -11.4335747035        8.1157108393        2.5346669301
 H       -13.1631294287        8.0003345733        1.7754885371
 H       -10.5775906822       10.6051775305        2.8385366343
 H       -12.1645616482       11.3067734776        2.9268046989
 H       -11.0178777823       11.7935438814        1.7124739074
 H        -7.5747122078        6.0042441263        2.4543821815
 H        -7.8065929689        7.7435118866        2.0170540403
 H        -6.2960688459        7.0748411959        2.3101049601
 H        -5.2764105994        8.1195680115       -0.0624880344
 H        -6.8352105964        8.8932599873        0.2028170622
 H        -6.4721842155        8.2927203911       -1.3745396982
 H        -9.2609990093        1.2543854783       -3.8406360675
 H        -7.5182458609        1.3144764095       -3.1936493356
 H        -8.6326017186        2.7179498158       -3.1152292588
 H       -10.2314165500        2.9884814234       -1.6426396145
 H       -10.4083462338        1.9214629057       -0.1936526131
 H       -11.0852790368        1.4778455465       -1.6265997994
 H        -7.5625726992       -5.4731888453        0.0931772832
 H        -8.2774454114       -5.8403694360       -1.4342712265
 H        -9.0737715255       -6.6538613641       -0.0304664390
 H       -11.2966260888       -5.3517202136       -0.8604003154
 H       -10.6143692654       -4.5535271330       -2.1700084336
 H       -11.3992207499       -3.6574513809       -1.0848486499
 H        -8.9177636236       -3.7599550552        6.1755894918
 H       -10.5242298345       -3.1621549691        5.8636305862
 H        -9.6056704484       -2.4688229852        7.0130710729
 H       -10.6008753721       -0.4324777393        5.8120824615
 H        -9.2892586692        0.4302421264        5.0342505172
 H        -8.9543600167       -0.3978753509        6.5081063126
 Na       -8.2575931450       -0.9834124280        1.4606448552
