117

 C        -6.7717369318       -2.4602198364        5.6075891879
 C        -7.7819329507       -1.7717654588        4.6476623300
 O        -7.5608781417       -1.5313130356        3.4966534719
 C        -9.3648323544       -1.8023835729        5.1347182316
 C       -10.1411107406       -2.0319848137        3.8780459213
 O       -10.2211004408       -1.0727064178        3.1283660345
 C       -10.7588507669       -3.4287363436        3.4780540499
 C       -10.6229955183       -3.4944107539        1.9435695568
 C        -9.4413361575       -4.2683322293        1.3936792567
 O        -8.7367102442       -4.8249187357        2.1947375910
 C        -9.2633505657       -4.3157344391       -0.1416769731
 C        -8.4565935830       -3.0006270004       -0.5695724495
 O        -7.8246582557       -2.3792288286        0.2430869240
 C        -8.4791884363       -2.6269127747       -2.0504667328
 C        -8.4895004113       -1.0581485382       -2.3046655711
 C        -9.1941955539       -0.2353489097       -1.3046996567
 O        -9.9017806140       -0.6951133013       -0.4258333029
 C        -9.1476684109        1.4164344474       -1.5322832489
 C        -7.8322150491        1.7941095353       -0.6107999563
 O        -7.4711652248        1.0326937001        0.2935498060
 C        -7.1628710126        3.0857572052       -0.9368176015
 C        -6.5097368676        3.8572497306        0.3999124378
 C        -6.1114380622        5.2538159701       -0.2034894846
 O        -5.0572705418        5.2869340410       -0.7708159740
 C        -7.0679385301        6.4769140747       -0.0835825207
 C        -8.6676528783        6.2158540990       -0.3267867282
 O        -9.1393548102        5.1651669293        0.0783342418
 C        -9.5472825999        7.1919585218       -1.0583366330
 C       -10.8229000004        7.6784756642       -0.2929464962
 C       -10.6544361901        9.0665608321        0.2575501390
 O        -9.7035451655        9.7268784357       -0.1267886064
 C       -11.8027040596        9.7750317233        1.2431461981
 C       -13.0717446419       10.2125862620        0.4290936138
 O       -14.1759099124        9.9406061464        0.7341476125
 C       -12.8803117282       11.3529669181       -0.5370910392
 C       -12.5125746494       10.9243971076       -2.0066406154
 C       -13.3003114748        9.6767355176       -2.4040955002
 O       -13.0295141727        8.7054854023       -1.6710976515
 C       -14.0233441162        9.5838509519       -3.7211779795
 C       -12.3438544964        9.3181778208       -4.5121993927
 O       -11.9254223556       10.2201065875       -5.1274104299
 C       -11.6746674300        8.0119211820       -4.2770995626
 C       -14.9910579479        8.3578251542       -3.7439039080
 C       -14.7544283505       10.7653244323       -4.4216722021
 C       -12.1783590146        9.0768515259        2.5708749847
 C       -11.2323162915       11.2356684099        1.6311625857
 C        -6.9923683963        6.7296664036        1.4286630418
 C        -6.4473677461        7.6458343207       -0.9409486847
 C        -8.8971789838        1.9574880800       -3.0133024877
 C       -10.3606029072        2.0510862090       -0.9722237797
 C        -8.6025203914       -5.5883659978       -0.7456448023
 C       -10.7218189828       -4.1788335126       -0.6604232971
 C        -9.6354497352       -2.7383774521        6.3908042065
 C        -9.4792917887       -0.3248914510        5.7440287700
 H        -5.7758313754       -2.4425532765        5.0985329063
 H        -7.0415220875       -3.5349814693        5.7473935141
 H        -6.7848715228       -2.0341969054        6.5935390977
 H       -11.7230934616       -3.2850903053        3.8932880057
 H       -10.2180685751       -4.2414396274        3.9134715102
 H       -10.3847997161       -2.5624493872        1.6400858551
 H       -11.5782880590       -3.8805795174        1.7204440530
 H        -9.4819403210       -3.0564489199       -2.4176107357
 H        -7.6952605431       -3.0810574318       -2.6343211213
 H        -8.7379846996       -0.9052489854       -3.3689020697
 H        -7.4667502630       -0.6355851938       -2.2304808115
 H        -7.8203475328        3.8361467184       -1.2133381824
 H        -6.3610040072        2.7293734952       -1.5973706210
 H        -5.5980935525        3.2129144393        0.6906621889
 H        -7.2370542047        3.7941286439        1.1646359969
 H        -9.8743956846        6.5530402671       -1.9161800598
 H        -9.1337235131        8.1184076167       -1.4341590768
 H       -11.1447099764        7.0485467195        0.4989019615
 H       -11.7032333469        7.6253945602       -0.9727102984
 H       -12.2002100611       12.0393840512       -0.1221806723
 H       -13.8810083674       11.7688570293       -0.7726274791
 H       -11.3868416745       10.7409796152       -2.1005542323
 H       -12.7932049719       11.6727271834       -2.8012436833
 H       -12.1227535151        7.2926318079       -4.9513060012
 H       -11.9875091050        7.4585338128       -3.2819204264
 H       -10.5749497023        8.0828347592       -4.4194810514
 H       -15.8343658607        8.4696583907       -3.1036035172
 H       -14.3847571963        7.5979756363       -3.3334860556
 H       -15.1549158591        7.9764378071       -4.7750431083
 H       -14.0890673462       11.4888597431       -4.8729158342
 H       -15.2970525509       11.3380024500       -3.7347572854
 H       -15.5176220411       10.4035565580       -5.0839174231
 H       -13.2397104039        9.3546699601        2.8485370710
 H       -11.4129568983        9.2048710479        3.2665626713
 H       -12.4548460859        8.0229747471        2.4042307179
 H       -10.5688321989       11.3272349448        2.4431153462
 H       -12.1013175785       11.9898912323        1.8521921441
 H       -10.6576320440       11.5054806730        0.6667095519
 H        -7.5878690265        6.0792583459        2.1655086817
 H        -7.5926771554        7.7241019347        1.6173261684
 H        -5.9349352158        6.8145323950        1.6730641772
 H        -5.3518791046        7.7595108341       -0.6942020386
 H        -6.8479923178        8.6494381682       -1.0472164314
 H        -6.4612581678        7.0439296347       -1.9378821969
 H        -9.7724510111        1.5454296877       -3.5011880041
 H        -7.8602994729        1.7863813812       -3.2873266786
 H        -9.0645005173        3.0961539734       -3.0429766712
 H       -10.2771655591        3.1237330177       -0.7045332133
 H       -10.7072962668        1.5500370007       -0.0313202864
 H       -11.1463719354        1.8728190063       -1.6999669680
 H        -7.6379775726       -5.7860085143       -0.3564384794
 H        -8.5101748189       -5.4874490568       -1.8436080226
 H        -9.2484549769       -6.5585026490       -0.7989594861
 H       -11.5755515103       -4.9148602021       -0.2126581526
 H       -10.8030041569       -4.1726914070       -1.7236789262
 H       -11.2607095297       -3.2710920308       -0.4256834114
 H        -9.9293981745       -3.7313131970        6.0947807193
 H       -10.4344173737       -2.4186282450        7.0637207289
 H        -8.7757452339       -2.9446951916        7.1204365324
 H       -10.3251682789       -0.1244327946        6.5498640256
 H        -9.4446221926        0.4552642936        4.9735303078
 H        -8.6500070352       -0.1781643969        6.4959878003
 Na       -8.4021154877       -0.6873285239        1.3975660820
