117

 C        -6.7718076192       -2.5679877163        5.4860439461
 C        -7.8758493891       -1.9072268804        4.6119910555
 O        -7.4696947825       -1.4313548009        3.5520621766
 C        -9.3416950135       -1.6757880527        5.2193539051
 C       -10.2496339707       -1.7923521146        4.0376495003
 O       -10.3275641375       -0.9190202342        3.1374638663
 C       -10.7245741455       -3.2757425987        3.5656093039
 C       -10.6210155644       -3.3983773669        1.9938402147
 C        -9.3874214655       -4.2783987017        1.4591363096
 O        -8.5172016405       -4.8776819243        2.1038231358
 C        -9.3332993171       -4.2458011463       -0.1768047990
 C        -8.5333864620       -2.9790881915       -0.5360587695
 O        -7.9100251098       -2.3700337685        0.3482939071
 C        -8.5657441343       -2.5233597714       -2.0487131913
 C        -8.4658583104       -1.0410900390       -2.3053050667
 C        -9.2802402870       -0.1576849291       -1.3350574523
 O        -9.8337708785       -0.6647169886       -0.3990819373
 C        -9.2111195431        1.4046440237       -1.4196581788
 C        -7.8496899941        1.6983850276       -0.6866848196
 O        -7.3898188649        0.9778363976        0.1892157438
 C        -7.0151000324        2.9925428548       -0.9678101462
 C        -6.5698736287        3.7445974508        0.2448799497
 C        -6.1449414767        5.1066291327       -0.2128510226
 O        -5.1441425157        5.1419941495       -0.8274926153
 C        -7.0665110132        6.4338504987       -0.0923519707
 C        -8.6729809688        6.0848217031       -0.3349564263
 O        -9.0855782191        5.0592073739        0.0649379726
 C        -9.6860313243        6.9991309824       -1.1139323564
 C       -10.7863548555        7.5951959838       -0.0835606836
 C       -10.5427389873        9.1134707623        0.3138485686
 O        -9.5975015373        9.6509491821       -0.3081241564
 C       -11.6045212919        9.8348037498        1.1631879055
 C       -13.0334328889       10.3256357717        0.3243361989
 O       -14.1371712239        9.9749700018        0.8278099202
 C       -12.8683042924       11.4140647685       -0.7959375533
 C       -12.5308137783       10.9468202284       -2.2319740855
 C       -13.3936949895        9.5875690055       -2.4902246763
 O       -13.2333817883        8.6832013194       -1.7152161082
 C       -13.9539930365        9.4479039738       -3.8756050989
 C       -12.5677112722        9.2709662145       -4.5618017517
 O       -11.9574727844       10.2040477244       -5.1181495955
 C       -11.5495410280        8.0362794394       -4.1616599507
 C       -15.0312289708        8.3199166339       -3.9383010896
 C       -14.5462150187       10.8127022076       -4.3135322113
 C       -12.0445867461        9.0672452411        2.4414186629
 C       -11.0024293707       11.1538793245        1.7426252563
 C        -6.8581613223        6.9652114879        1.4141691163
 C        -6.6042508386        7.4807138192       -1.1004955168
 C        -9.0047384070        1.8226474000       -2.8729882803
 C       -10.3690157747        2.1554038137       -0.6985260147
 C        -8.6897881697       -5.5456758982       -0.6164695083
 C       -10.6544035388       -4.1243437729       -0.9462986440
 C        -9.7746183434       -2.7170627215        6.3498736137
 C        -9.4147033318       -0.2201613901        5.8788363939
 H        -5.9377614101       -2.7067066984        4.7709533875
 H        -6.9784024945       -3.4310173969        6.1609689853
 H        -6.4898544581       -1.7445604066        6.2098263811
 H       -11.7213605053       -3.3679288568        4.0119938519
 H        -9.9817205936       -4.0875230220        3.8555519280
 H       -10.5794605763       -2.4609389668        1.4526105405
 H       -11.4799439990       -4.0779790939        1.9785374233
 H        -9.5054347509       -2.8542177562       -2.4941363686
 H        -7.7565506225       -3.0285963245       -2.6486684284
 H        -8.6973692091       -0.9391797909       -3.3966619610
 H        -7.4173870767       -0.6797704214       -2.2972724890
 H        -7.5769692363        3.8595083462       -1.2908144420
 H        -6.0131441796        2.6039510361       -1.5116987280
 H        -5.8190191068        3.1531142927        0.6789645939
 H        -7.4238278915        3.8949312012        0.9061339150
 H       -10.1762692077        6.4342128160       -1.8870663673
 H        -9.4129379822        7.9881513673       -1.5542554770
 H       -10.9327861529        7.0343220382        0.8957538479
 H       -11.7557742740        7.3781455251       -0.6030991180
 H       -12.1123628471       12.0347261693       -0.3530348017
 H       -13.8154027634       11.9667646398       -0.9342269272
 H       -11.4730160299       10.7604474899       -2.1780256231
 H       -12.6925158122       11.6841116600       -3.0843443895
 H       -11.4440676173        7.0990742425       -4.7321042567
 H       -11.9214122349        7.6053700502       -3.2644404270
 H       -10.5410464717        8.5588286193       -3.9469712219
 H       -15.7363792317        8.6012696326       -3.2424831422
 H       -14.7255595460        7.3183500064       -3.7019742892
 H       -15.3435997527        8.2676611420       -4.9773884673
 H       -13.6753511568       11.4826399930       -4.4407205809
 H       -15.2465783801       11.3090203380       -3.6637260667
 H       -15.1044531959       10.7731350074       -5.2312661307
 H       -13.0728645800        9.1902797611        2.6171454020
 H       -11.3046052110        9.3540729455        3.2705291169
 H       -12.0969076511        7.9544105673        2.3439866888
 H       -10.0425997945       10.9589775333        2.2855111915
 H       -11.6344372534       11.5318746812        2.5035065248
 H       -10.7175098462       11.8874944589        0.9872803255
 H        -7.2389039432        6.1823411201        2.1462046972
 H        -7.5099810318        7.7099966303        1.7054135082
 H        -5.7551793532        7.1970161510        1.5663234782
 H        -5.4333423294        7.3909670085       -1.2161125322
 H        -6.7003047385        8.5925519371       -0.7872523605
 H        -7.0585616670        7.2886816837       -2.0609963031
 H        -9.4860886192        1.0731885587       -3.5235253211
 H        -7.9688284267        2.2081618572       -2.9402774031
 H        -9.6139477281        2.7346381022       -2.9551609932
 H       -10.1509463943        3.1087686496       -0.2100218184
 H       -10.7507769569        1.5253637929        0.1283491861
 H       -11.1270740600        2.2245809646       -1.4128862596
 H        -7.7034064541       -5.6599037105        0.0042449882
 H        -8.3833855595       -5.4909257170       -1.6612356080
 H        -9.2769234401       -6.5075628556       -0.7262570549
 H       -11.2178417706       -4.9478437763       -0.7143563197
 H       -10.5735236870       -4.0544163701       -2.0047429896
 H       -11.4514990493       -3.4331329741       -0.6779815730
 H       -10.0398251387       -3.6709868192        5.9282128877
 H       -10.7374955753       -2.4259353226        6.7904259999
 H        -9.1656728747       -2.9601912388        7.2075682072
 H       -10.4155388097       -0.0824389243        6.3389449073
 H        -9.3064723576        0.5245226496        5.0054747284
 H        -8.8394770829        0.0505453799        6.7320900548
 Na       -8.6058173901       -0.6172936264        1.7620845269
