117

 C        -7.0741664247       -2.7399171201        5.3782215543
 C        -7.9511763302       -1.7443121422        4.6562096794
 O        -7.5047011251       -1.2091836786        3.6817410054
 C        -9.4729998865       -1.3743969185        5.3333166103
 C       -10.3143537534       -1.6664578108        4.1483097864
 O       -10.4654440667       -0.7554483748        3.3758054279
 C       -10.8561655279       -2.9977162183        3.6269248390
 C       -10.6409552542       -3.3075621006        2.1004402339
 C        -9.4864493286       -4.1339393228        1.5475737355
 O        -8.7243563094       -4.6927143894        2.2758714233
 C        -9.4460212974       -4.1302317367       -0.0311499850
 C        -8.7699266372       -2.8077724509       -0.3979455198
 O        -8.2287261427       -2.2010408161        0.5089110551
 C        -8.6345506642       -2.3436957374       -1.8587450916
 C        -8.4290245362       -0.9174324660       -2.0638961386
 C        -9.4752570690       -0.1815375216       -1.1953178156
 O       -10.3733902126       -0.8241518722       -0.6623144551
 C        -9.2982417751        1.2505748604       -0.8294897898
 C        -7.9194323855        1.6775621433       -0.2474131961
 O        -7.5196616608        1.2261637104        0.7911638216
 C        -6.9184251109        2.5359823350       -1.0350300368
 C        -6.3168212466        3.6837728341        0.0580916876
 C        -6.1082570740        5.0089068770       -0.6971403945
 O        -4.9589094079        5.2413689021       -1.1368309312
 C        -7.1624277153        6.1942937006       -0.7060591782
 C        -8.6972326650        5.7517524935       -0.3736935767
 O        -8.9223775038        4.7873800096        0.4341646965
 C        -9.8833484474        6.6514229547       -0.8493422016
 C       -10.5427430923        7.3617749772        0.3744457005
 C       -10.3251177960        8.9678453633        0.3310721793
 O       -10.1308431341        9.5613059352       -0.6726157820
 C       -11.0675338184        9.8773118868        1.4271304373
 C       -12.4142991725       10.2931538328        0.4951814321
 O       -13.4100521774       10.4478254504        1.0792504562
 C       -12.2699808150       11.1130970879       -0.9468025816
 C       -12.2827874969       10.3134080574       -2.2380881014
 C       -13.4989196520        9.5677609650       -2.7088522400
 O       -14.3977835463        9.5461243149       -1.8764132282
 C       -13.7182905829        9.2713223105       -4.2682555332
 C       -12.4019818567        9.1401531157       -5.0841664872
 O       -12.0087417742        9.9214587932       -5.9010394783
 C       -11.4173814734        8.0474477606       -4.7564089157
 C       -14.6717450432        8.0920451559       -4.4575698440
 C       -14.2877182750       10.6359937097       -4.6710191881
 C       -11.3344967179        9.1590801984        2.7904516425
 C       -10.3465249927       11.1851093401        1.5488757672
 C        -6.8259454591        6.9542707361        0.6207361522
 C        -6.8666018695        7.1130177675       -1.8699076782
 C        -9.5892663343        2.0074309751       -2.2313944374
 C       -10.3425357187        1.6565129943        0.1263734090
 C        -8.6405245409       -5.3697115986       -0.1894265682
 C       -10.7891558993       -4.2492543173       -0.7684293342
 C        -9.7624440607       -2.2165644501        6.5260253149
 C        -9.3817019624        0.1937693768        5.6522775691
 H        -7.6935832892       -3.5513609443        5.7706663569
 H        -6.5069764519       -2.0716849680        6.0513769923
 H        -6.3450166463       -3.2739829301        4.7397946907
 H       -11.9706837105       -2.8729484768        3.6479015269
 H       -10.4470620189       -3.7736800468        4.2894113352
 H       -10.6215410105       -2.1620161238        1.7724328255
 H       -11.5884465567       -3.8212786648        1.8138795464
 H        -9.4978389687       -2.6146353519       -2.4118973258
 H        -7.9420924410       -3.0559350693       -2.3728018815
 H        -8.5427034715       -0.6879006539       -3.1350237874
 H        -7.4077496323       -0.5143366784       -1.9166690252
 H        -7.6027283288        3.2865732396       -1.6428289381
 H        -6.0412746478        2.0192301358       -1.5539618617
 H        -5.3527294728        3.4546614938        0.4203358619
 H        -7.1493262845        3.6254269106        0.7546160756
 H       -10.6000674486        6.0445060763       -1.3838507565
 H        -9.6549167633        7.4048374853       -1.6156017109
 H       -10.2117656690        6.5254726569        1.0204549987
 H       -11.6442183061        7.2581647800        0.2538386546
 H       -11.3525453493       11.6883112189       -1.1240202140
 H       -12.8877115239       11.9292030747       -1.0170430244
 H       -11.4293667174        9.5982622353       -2.3235640645
 H       -12.0441038288       11.0894867261       -2.9429748246
 H       -10.3243541259        8.1482507767       -4.6521605721
 H       -11.4271121950        7.3440527376       -5.6798581942
 H       -11.8217055891        7.5028850503       -3.9106580400
 H       -15.7634705281        8.3278018716       -4.3483257970
 H       -14.4644749529        7.3932371137       -3.6957727800
 H       -14.5392406023        7.6094524711       -5.3616001840
 H       -13.7066087608       11.4300492734       -4.3580774967
 H       -15.3244118484       10.7146929350       -4.3358626927
 H       -14.1844768781       10.8810698143       -5.7122493582
 H       -10.7396451775        9.6589725455        3.6396520828
 H       -11.1491389771        8.0955279297        2.8398262388
 H       -12.4493581106        9.2577086558        2.9282877258
 H        -9.7961206428       11.2608176864        2.4729615911
 H       -11.0707363946       12.0250519861        1.5646149973
 H        -9.6095883332       11.3552790489        0.7740942564
 H        -7.2456273326        6.3127511860        1.3787292663
 H        -7.3189241805        8.0037477378        0.6753917122
 H        -5.8073757090        7.1919200694        0.7509176198
 H        -5.7978932804        7.3518586442       -1.8789031605
 H        -7.4873238869        7.9905977098       -1.8477633357
 H        -7.2032400391        6.4471413295       -2.8243522014
 H       -10.5981376501        2.4657801538       -2.1117092772
 H        -9.7493658599        1.2554394627       -3.0024631837
 H        -8.8155255854        2.7270397857       -2.3630378211
 H       -10.7985884539        2.6361296266        0.0006508853
 H       -10.0187711496        1.6458659127        1.1413920713
 H       -11.1590548385        0.8923921403       -0.0726330690
 H        -7.6949885264       -5.3926813271        0.3136921772
 H        -8.4104667981       -5.5924343895       -1.3361386587
 H        -9.1191835463       -6.2679137043        0.2326459980
 H       -11.3797163136       -5.2568445083       -0.5555701007
 H       -10.7464900734       -4.2289557056       -1.8254233855
 H       -11.5009631174       -3.5778227379       -0.5081001898
 H       -10.1604811869       -3.2364550075        6.2979959207
 H       -10.4711840812       -1.9080533909        7.3026658571
 H        -8.8138033006       -2.3420288298        7.0264567437
 H       -10.1663031666        0.6487366823        6.2944655741
 H        -9.2178400769        0.8232295934        4.8347337840
 H        -8.3986314421        0.3618982923        6.2427940139
 Na       -8.7522603088       -0.5906004634        1.8854727721
