117

 C        -7.2588445667       -2.7383240322        5.6174989496
 C        -7.8336499393       -1.6920606284        4.6819421298
 O        -7.3740230245       -1.1101035517        3.7147132573
 C        -9.3629402827       -1.2916278529        5.1094652968
 C       -10.3366694210       -1.6414617806        3.9742125566
 O       -10.6130716942       -0.7629581735        3.1783347695
 C       -10.9812534172       -2.9443566433        3.8827096315
 C       -11.1219971727       -3.3796280448        2.4546658862
 C        -9.9369140989       -4.0321322717        1.7997494826
 O        -9.0817964141       -4.5685456802        2.4890010410
 C        -9.5560913949       -4.1191331924        0.3131589135
 C        -8.7312529847       -2.8649377936       -0.0133585192
 O        -7.8577197778       -2.5470980730        0.7875618403
 C        -8.8598213148       -2.2308299912       -1.4242186025
 C        -8.6123076966       -0.7537606635       -1.5598296315
 C        -9.7829744943        0.0119961869       -0.8842083040
 O       -10.7525585709       -0.6863083590       -0.5895266371
 C        -9.5796161897        1.5010142110       -0.5753601167
 C        -8.1098911501        1.8332554054       -0.1199803105
 O        -7.6991219967        1.5386369800        0.9883546248
 C        -7.1134138593        2.6092865777       -1.0272078206
 C        -6.1745929470        3.5190127338       -0.0942676908
 C        -6.0733845206        4.8920631152       -0.8834673959
 O        -5.1757838900        5.0887355805       -1.6254350623
 C        -7.2397649456        6.1063609504       -0.7511741685
 C        -8.6067413467        5.5391549665       -0.3069071743
 O        -8.6526971710        4.3466229276        0.0573432519
 C        -9.8671452766        6.3272992910       -0.5151206662
 C       -10.3227025315        7.3557971871        0.5913051061
 C        -9.9776838965        8.8246484304        0.1299147965
 O        -8.9855712185        9.0305429797       -0.4909247113
 C       -10.6604789838        9.9051825667        1.0318454251
 C       -12.1239165416       10.4346934929        0.3597321355
 O       -13.1489819271       10.3431517878        1.0041082370
 C       -12.2896535708       10.9583755995       -1.0709539916
 C       -12.3987663911        9.7860371800       -2.0696005050
 C       -13.6177409670        9.8282014927       -3.0102693412
 O       -14.6226192510       10.3093332456       -2.4216583484
 C       -13.6689134711        9.4445722425       -4.5365171826
 C       -12.3178481984        9.1006038641       -5.2453907853
 O       -11.9006924710        9.8166117269       -6.0951833345
 C       -11.4824807826        7.9761350240       -4.7751596986
 C       -14.4819446132        8.0251005397       -4.3741161284
 C       -14.4744353184       10.5462723708       -5.1643116225
 C       -11.0446772945        9.3502258040        2.5105410747
 C        -9.7297031388       11.1661383379        1.0956546135
 C        -6.7038834024        7.1882512326        0.2213715256
 C        -7.3146483854        6.7814382092       -2.2667666569
 C       -10.0253900320        2.3011298567       -1.8842177400
 C       -10.5559676906        1.6445672235        0.7029510064
 C        -8.4939662319       -5.2924668215        0.2527027401
 C       -10.7985229781       -4.3520730170       -0.5240829633
 C        -9.9248071180       -2.0021288597        6.4177543364
 C        -9.2703527786        0.2284185833        5.3398743968
 H        -7.5586397233       -2.4577822226        6.6527885242
 H        -6.1964788717       -2.7407898765        5.4585723888
 H        -7.7068787920       -3.7152308355        5.5462325800
 H       -11.9758374175       -2.7592902528        4.3415327743
 H       -10.5376364126       -3.7492414853        4.4132732540
 H       -11.3085338524       -2.4727069110        1.7378552761
 H       -12.0505247806       -3.9860376828        2.3471025129
 H        -9.8881992398       -2.4618043919       -1.7330982201
 H        -8.2892346734       -2.7887347066       -2.2089752672
 H        -8.5985199234       -0.5544318632       -2.6570163103
 H        -7.6160145680       -0.3902796160       -1.2127751423
 H        -7.5757793357        3.1138688355       -1.9744605534
 H        -6.3956644049        1.8022524741       -1.4620135832
 H        -5.1399584875        3.1507363798       -0.0767008616
 H        -6.6263916631        3.6469265049        0.8875843856
 H       -10.7063232166        5.7153339700       -0.7764791665
 H        -9.8273143013        7.0190582100       -1.3757349396
 H        -9.7633608727        7.2923787092        1.5574617871
 H       -11.3439289636        7.0018824583        0.7035778408
 H       -11.6193389797       11.7414481614       -1.4436148595
 H       -13.1424326182       11.5640002712       -1.0956726190
 H       -12.5596542402        8.9143244278       -1.3066175658
 H       -11.5263502680        9.6074196442       -2.7205311045
 H       -11.8001543875        7.3394135167       -3.9389218758
 H       -10.3805470602        8.3032836277       -4.4940384135
 H       -11.1778961622        7.4358394160       -5.7299049042
 H       -15.4227212885        8.0586439665       -3.7692580940
 H       -13.8135264811        7.3046633487       -3.9921057477
 H       -14.9264956348        7.6922017765       -5.3060339617
 H       -13.9174386211       11.3964298159       -5.5092205498
 H       -15.2102794041       10.8398095276       -4.3976034568
 H       -15.0092666363       10.1845590643       -6.0595889262
 H       -10.5269996478        8.3454117622        2.6867772530
 H       -12.0767372872        9.2147482700        2.5704446322
 H       -10.8100830575       10.1829807552        3.2258147652
 H        -8.7679754034       10.8391693378        1.2812916325
 H       -10.0272251443       11.9415865750        1.9037722154
 H        -9.8066223688       11.8294159677        0.1613165734
 H        -6.3066816711        6.7298098343        1.2080772494
 H        -7.4064128994        8.0851060891        0.2262846044
 H        -5.7546967301        7.6181649884       -0.1400253876
 H        -6.2289427066        7.0395776466       -2.4837192536
 H        -8.0592316028        7.6068145526       -2.2533283159
 H        -7.5786457543        6.0410586416       -3.1048827966
 H       -11.1251212214        2.5361231881       -2.0219013502
 H        -9.7124414426        1.6925513092       -2.7569194047
 H        -9.4441224638        3.2759282498       -1.8190019594
 H       -10.6900821668        2.6815471289        1.0728810217
 H       -10.4212999712        0.9086724527        1.4828769088
 H       -11.5848339652        1.4422952106        0.2737395958
 H        -7.5423155724       -5.1571969244        0.7710646091
 H        -8.0731623935       -5.3329415010       -0.7664165300
 H        -8.8582297510       -6.3513929872        0.6618905147
 H       -11.6410390899       -4.6976011811        0.2248327977
 H       -10.8802718925       -5.1331990696       -1.1882657117
 H       -11.1722179099       -3.4879984302       -1.0581861996
 H        -9.5307405410       -3.0435033445        6.5755492429
 H       -11.0241074404       -2.1005257634        6.2933734173
 H        -9.8327081435       -1.3872576984        7.3556286837
 H       -10.3246388487        0.7338300607        5.1430316381
 H        -8.6023160346        0.8212249074        4.7202626309
 H        -8.8586271271        0.4548549988        6.3526312575
 Na       -8.5322624801       -0.5381328537        1.7581521503
