117

 C        -7.1823591752       -2.6843979086        5.6508345535
 C        -7.9451924467       -1.7725569374        4.7926613353
 O        -7.3494797120       -1.2345805764        3.8262120145
 C        -9.3723391907       -1.2454258455        5.0997880035
 C       -10.3349565844       -1.5879418164        3.8359260310
 O       -10.4965442524       -0.7306938525        3.0040316032
 C       -11.0296978289       -2.9734259817        3.7317946461
 C       -11.2694828787       -3.4402489992        2.3095841364
 C        -9.8846212281       -4.0353751006        1.8797278972
 O        -9.1067567555       -4.4482368945        2.7356468050
 C        -9.5645719797       -4.1688702074        0.3261089312
 C        -8.7278799287       -2.8759246982        0.0999506269
 O        -7.9387654488       -2.4122190459        0.9301283737
 C        -8.8905764395       -2.2529096138       -1.3070213897
 C        -8.5893048407       -0.7509393050       -1.4429299412
 C        -9.7668456645        0.0750567012       -0.7133421859
 O       -10.8414764419       -0.4479240527       -0.4108359246
 C        -9.6007062252        1.5388207907       -0.5140990547
 C        -8.1132865095        1.8919325265       -0.0920519786
 O        -7.7840252847        1.4437180427        0.9992382832
 C        -7.1028696464        2.5084127195       -1.1154081838
 C        -6.3170198779        3.5344436263       -0.3258634897
 C        -6.1090851904        4.8195620454       -1.0305656218
 O        -5.1660676341        5.0660652425       -1.7231505476
 C        -7.2220730758        5.9773961813       -0.9031607576
 C        -8.6680712574        5.4794934669       -0.3659769272
 O        -8.8030223966        4.4509633457        0.2362128416
 C        -9.9143144532        6.3105191278       -0.5751560574
 C       -10.2380216669        7.3849201596        0.6212866959
 C        -9.7320910609        8.7659321998        0.3678671778
 O        -8.9759080820        8.9694607062       -0.6071251445
 C       -10.5796656354       10.0163635922        0.9376656195
 C       -11.9924092291       10.3250588721        0.2708172047
 O       -12.9474570407       10.2170950344        1.0371782340
 C       -12.1426706067       10.7235395905       -1.1627861367
 C       -12.3396339990        9.6742887873       -2.2500321602
 C       -13.7189161222        9.9750451107       -3.0195732568
 O       -14.6641357558       10.5617070455       -2.5821127715
 C       -13.7495873317        9.4469173197       -4.4234079689
 C       -12.2482300984        9.0943068215       -5.0817331072
 O       -11.9451906977        9.8236152818       -6.0163816729
 C       -11.2447918241        7.9001473901       -4.7408662178
 C       -14.5887036023        8.0898846624       -4.4985085874
 C       -14.5595305791       10.4521680631       -5.3088840961
 C       -10.8682177619        9.5008685894        2.3681076796
 C        -9.7629874159       11.3080128743        1.0954705105
 C        -6.8370374560        7.0016794454        0.1954510909
 C        -7.3570090651        6.6880641679       -2.3214052836
 C       -10.0350788813        2.2222161421       -1.7401180746
 C       -10.5574231622        1.8913660386        0.6473947517
 C        -8.5678241025       -5.3547730390        0.2550589769
 C       -10.8654811532       -4.3877621282       -0.5088433487
 C        -9.8637720597       -1.9159055837        6.4139006086
 C        -9.3142137384        0.2096449433        5.2127888642
 H        -6.8346710819       -2.0773944004        6.5496845466
 H        -6.3119242634       -2.8807015381        5.0003916070
 H        -7.6707526630       -3.5197630142        6.1558775569
 H       -12.0372429908       -2.9874380612        4.2897300290
 H       -10.4341310905       -3.8053581369        4.2414663030
 H       -11.6073979370       -2.5971874355        1.6322937183
 H       -12.1585504380       -4.2520672379        2.1794619259
 H        -9.9443496166       -2.5425382684       -1.6523362119
 H        -8.2879049779       -2.8108012502       -1.9789008336
 H        -8.5098526038       -0.4755066435       -2.5255689846
 H        -7.6005992231       -0.5140787098       -1.0058897278
 H        -7.6219113324        2.9089449229       -1.9325557969
 H        -6.5394522333        1.6385746643       -1.5790447762
 H        -5.2730854837        3.2127503061       -0.6067875630
 H        -6.4443736422        3.6537600018        0.7205174997
 H       -10.8173289540        5.6669489494       -0.7440126661
 H        -9.8908896655        6.8992026977       -1.4738911381
 H        -9.7567641209        7.0346992603        1.5555265831
 H       -11.3800100796        7.3317899507        0.7311941701
 H       -11.1960481856       11.2066632804       -1.3674296507
 H       -12.7280433474       11.6267990751       -1.3617461290
 H       -12.4483309768        8.7331050784       -1.6839349986
 H       -11.5781828026        9.6087974181       -2.9933107417
 H       -11.6617889886        6.9903933781       -4.2205102227
 H       -10.4043417195        8.1759462208       -4.1333113777
 H       -10.6757553680        7.7626114462       -5.7147749475
 H       -15.5639767752        8.2820261868       -4.3300128541
 H       -14.2570292290        7.3241243016       -3.8672800877
 H       -14.6960026771        7.7283350840       -5.5479409191
 H       -13.9839869784       11.2724564987       -5.7884155405
 H       -15.2795256875       10.9214988538       -4.7020986956
 H       -15.0407736967        9.8541163765       -6.0825488697
 H       -10.4025761735        8.5413638032        2.4586339054
 H       -11.9611529769        9.3947965223        2.5965596675
 H       -10.4192190958       10.2418318603        3.0860043063
 H        -8.7154399482       11.0376373558        1.2740907216
 H       -10.0656236183       11.9787666043        1.8668026152
 H        -9.9040865229       11.9215062490        0.2116999943
 H        -6.8580892010        6.6014136504        1.2142813789
 H        -7.1955821071        7.9049584035       -0.0264047879
 H        -5.7285057174        7.0981122128        0.1012393766
 H        -6.4198809926        7.2579758670       -2.6619693315
 H        -8.3902211099        7.1761713150       -2.4369841206
 H        -7.3562394816        5.8937411579       -2.9948792705
 H       -10.9733207916        1.8219824890       -2.1571823303
 H        -9.2405324275        2.0737636361       -2.5262551826
 H       -10.1712468872        3.3114210893       -1.4414776647
 H       -10.7677761039        2.9701164558        0.6860391038
 H       -10.0285482915        1.4885564734        1.5603129047
 H       -11.4973010548        1.4340459217        0.6467745242
 H        -7.5807756333       -5.1370548041        0.7964007189
 H        -8.1739436004       -5.7314438470       -0.6398278273
 H        -9.0012975448       -6.1381007017        0.8837008154
 H       -11.5283853628       -5.0002143419       -0.0253060917
 H       -10.6930098813       -4.9362019722       -1.4437291858
 H       -11.3579168012       -3.4064413681       -0.8944915415
 H        -9.5468755419       -2.9590627183        6.5017922883
 H       -10.9567366936       -1.7565608520        6.5549394135
 H        -9.4241883918       -1.3251646293        7.2993583935
 H       -10.2769584076        0.6313582219        4.9928314793
 H        -8.6164582380        0.8036239940        4.5326897755
 H        -8.9627524095        0.4983825747        6.1637365240
 Na       -8.5132957311       -0.5446952901        1.9779234704
