117

 C        -7.1714870120       -2.5951638096        5.8112222779
 C        -7.9608305203       -1.7715882782        4.7496223443
 O        -7.2795759686       -1.4906292066        3.8080937110
 C        -9.3475807077       -1.2970996804        5.0651083367
 C       -10.3396835789       -1.7188785090        3.8423915474
 O       -10.3361424683       -1.0128000416        2.8288574263
 C       -11.4234344233       -2.6923886634        3.8619154244
 C       -11.3013272824       -3.4416586837        2.4802701843
 C        -9.9294626043       -4.0904763476        2.1336681860
 O        -9.0668999191       -4.3026162656        2.9507183782
 C        -9.5128165579       -4.3040640090        0.4437500020
 C        -8.8333215861       -2.9035880035        0.0821481593
 O        -8.3584251561       -2.2948657223        1.0270253731
 C        -8.8556922815       -2.2034661782       -1.2803761570
 C        -8.6791882448       -0.6944627004       -1.1126444838
 C        -9.9656019247        0.0234453671       -0.4919699277
 O       -10.9219829469       -0.5939201491       -0.0961757755
 C        -9.7212852879        1.5943458782       -0.3070236464
 C        -8.1762597640        1.8207131475       -0.0845293514
 O        -7.7340728556        1.3319152176        0.9496690100
 C        -7.1297116152        2.5373706535       -1.0938964148
 C        -6.0994904440        3.4387583715       -0.4900138695
 C        -6.2587263456        4.7972445265       -1.2013078308
 O        -5.3218093897        5.0142334120       -1.9342608671
 C        -7.4302515720        5.8211121281       -1.1600415228
 C        -8.7970960626        5.4495870839       -0.4375949063
 O        -8.8330417040        4.6170465529        0.5003416146
 C        -9.9838539451        6.3729527232       -0.7399442889
 C       -10.0633376641        7.3387246551        0.4826336107
 C        -9.6996100796        8.9184397162        0.2251506652
 O        -9.0357747775        9.1680278720       -0.7229549958
 C       -10.4046328882       10.0071461348        1.0241973074
 C       -11.8155804569       10.1275129190        0.2661577945
 O       -12.8262774453        9.8334590971        0.8751634580
 C       -11.6413586876       10.5844396148       -1.1823448479
 C       -12.3439086465        9.6223947129       -2.2638993391
 C       -13.5602898293       10.1000273603       -3.2110816349
 O       -14.4107847838       10.9015965109       -2.7660805396
 C       -13.8282080807        9.3530009484       -4.5583875158
 C       -12.3523172962        9.1628749448       -5.1418371583
 O       -11.8279507217        9.9436853388       -5.8665379349
 C       -11.5970629207        7.8761544637       -4.7418447792
 C       -14.6005735874        7.9307109416       -4.4835452098
 C       -14.4477480545       10.2991148844       -5.6772813140
 C       -10.4543845221        9.7663554731        2.5929865611
 C        -9.6056743592       11.2812741102        0.7600624002
 C        -6.7297663279        6.6770649125        0.0610236372
 C        -7.5117748329        6.6727603835       -2.4767731204
 C       -10.2265768093        2.2024906910       -1.7393360890
 C       -10.4988994588        2.4471849992        0.7422027195
 C        -8.5158535991       -5.5659597417        0.1760732037
 C       -10.8478206685       -4.5515289736       -0.3544423760
 C       -10.0895795808       -1.7369866004        6.3406755424
 C        -9.4315379911        0.2777166932        5.1283034781
 H        -6.1928012393       -2.1667977778        6.0750771836
 H        -6.9211815738       -3.5472652087        5.3635950458
 H        -7.7542045028       -2.6240495796        6.7288146761
 H       -12.4549365561       -2.3301181344        3.8447933544
 H       -11.3798346398       -3.3183896906        4.7317298073
 H       -11.5637840213       -2.6975492939        1.6959449438
 H       -12.0119023404       -4.1249875854        2.2320157494
 H        -9.7817739388       -2.4417050338       -1.7091600350
 H        -8.0321122467       -2.7040462457       -1.8722366968
 H        -8.5469396524       -0.2244581299       -2.0874412514
 H        -7.8401168224       -0.4674976854       -0.4538805435
 H        -7.4651752143        2.9059935034       -2.1712920211
 H        -6.8960085027        1.4964033037       -1.4051113574
 H        -5.0613177825        3.0679386484       -0.5954214262
 H        -6.2562279999        3.7943797416        0.5834044510
 H       -10.9028393697        5.8176532080       -0.7315883935
 H        -9.8885259118        6.7004731842       -1.8326579264
 H        -9.6189505023        6.7155614352        1.2645979249
 H       -11.1300034239        7.4171094917        0.6372199760
 H       -10.5740011092       10.7716541806       -1.4987260132
 H       -12.0222880867       11.5993916021       -1.3343450607
 H       -12.5797763135        8.6380038593       -1.8852634851
 H       -11.6326290719        9.5332392712       -3.0783501462
 H       -12.2647481525        7.1312786158       -4.6617832104
 H       -11.0979499449        7.8565839076       -3.7511544154
 H       -10.7430894355        7.7083980893       -5.2949820835
 H       -15.7567025217        7.9907736804       -4.5806549327
 H       -14.3738414250        7.4526188378       -3.5052253423
 H       -14.3546912961        7.2757547325       -5.2881276427
 H       -14.0288949157       11.2915047432       -5.6965436043
 H       -15.5261985717       10.4771310642       -5.3945659863
 H       -14.4181077544        9.7073260619       -6.6058490392
 H        -9.8222224644        8.8861980480        2.9085685696
 H       -11.4477078824        9.6001578027        2.8587480755
 H        -9.9827430142       10.6075231185        3.0762996156
 H        -8.8971604495       11.4054294877        1.4931196440
 H       -10.2585415460       12.1835462526        0.8591560531
 H        -9.1882208180       11.2896321686       -0.2626829469
 H        -7.1058248364        6.2645327599        1.0249053582
 H        -6.9768954649        7.7568223516       -0.1079747514
 H        -5.6855195881        6.5736946525        0.1012776692
 H        -6.4905560425        6.7889972739       -2.6597298859
 H        -8.0236947360        7.5468281011       -2.3668962499
 H        -7.8811073529        6.0274805847       -3.2953358230
 H       -10.6621288334        1.3717468350       -2.2555949475
 H        -9.4558410242        2.5665774159       -2.3441311323
 H       -10.9983240708        2.9125727718       -1.6846126801
 H       -10.7625654748        3.3778666253        0.2971271332
 H       -10.0590375461        2.4489591820        1.6708787083
 H       -11.5013585185        1.9692093998        0.9082783328
 H        -7.5697376117       -5.6086391687        0.5429264161
 H        -8.3679434165       -5.6519027500       -0.8951188905
 H        -9.0192456573       -6.5392889309        0.4124221344
 H       -11.0510452426       -5.7354813194       -0.4094365304
 H       -10.8805225458       -4.2360126831       -1.4042407803
 H       -11.6419088089       -4.0001895712        0.1000363665
 H       -10.6741122075       -2.6342341676        6.1837595285
 H       -10.5904398981       -0.8644988492        6.7004004254
 H        -9.3921883901       -1.9769432055        7.0878778833
 H       -10.4415189399        0.6716255853        5.4013826432
 H        -9.2092081310        0.7964877367        4.2873177523
 H        -8.7287961607        0.5828641517        5.8836225873
 Na       -8.2991787528       -0.2229464568        2.3130667485
