117

 C        -7.4321414661       -2.6649969421        6.0382272964
 C        -8.1524718215       -1.8721679859        4.9954155258
 O        -7.4923025101       -1.5323072839        4.0089014877
 C        -9.5293525963       -1.2824834602        5.1176017132
 C       -10.2721774152       -1.6343567238        3.7658742035
 O       -10.1445965563       -1.0439421927        2.7192140235
 C       -11.2671724279       -2.8624109599        3.8282492030
 C       -11.4743139192       -3.6531106772        2.5381984477
 C       -10.0143112134       -4.2469408521        2.1327878107
 O        -9.1282230609       -4.3605407870        2.9418420014
 C        -9.7087312259       -4.2327664342        0.6400504740
 C        -9.2167214239       -2.8009336660        0.4332053041
 O        -8.5251896959       -2.2104682541        1.2146020731
 C        -9.2014965856       -2.2898763758       -1.0207488325
 C        -8.8849213485       -0.8551662454       -1.1150541792
 C        -9.9266239033       -0.0496033571       -0.3565154184
 O       -10.8442893353       -0.4062056260        0.3065883354
 C        -9.7768112102        1.5790381689       -0.3706140125
 C        -8.2279237474        1.9244416117       -0.1343125316
 O        -7.6648430194        1.7189380854        0.9254956366
 C        -7.3548036271        2.4365162131       -1.2912776695
 C        -6.4267125822        3.5430381517       -0.5747507511
 C        -6.2001382280        4.7834278547       -1.4228965690
 O        -5.4784397126        4.7175559467       -2.4448756291
 C        -7.2545317619        6.1030691327       -0.9611302364
 C        -8.5589633664        5.5880145667       -0.3466462274
 O        -8.7396299808        4.5878105778        0.2998076432
 C        -9.8693758128        6.4997924714       -0.5495600950
 C       -10.1803033812        7.5629969856        0.4807626294
 C        -9.6542303125        8.8430523971        0.0260165524
 O        -8.9507670221        8.9226194336       -1.0154977821
 C       -10.2641307772       10.1285202199        0.8218856228
 C       -11.6536269836       10.1062999571        0.1484380754
 O       -12.4640746078        9.3455048313        0.6157290633
 C       -12.1291601957       10.7420145210       -1.2146510510
 C       -12.3954686144        9.6844830184       -2.2211288064
 C       -13.4243116715       10.2387428155       -3.2272245913
 O       -13.9808103533       11.2536438914       -3.0132234316
 C       -13.6430493818        9.3116542697       -4.5529970087
 C       -12.2252947642        8.9682576449       -5.3203209781
 O       -11.3406416360        9.7770122198       -5.6730308176
 C       -11.8721461434        7.5460519072       -5.4489344210
 C       -14.4675672944        8.1024428476       -3.9885459159
 C       -14.5711351810       10.2081739684       -5.4723218290
 C       -10.4168480489        9.7509278556        2.2987469862
 C        -9.3516985469       11.3781319471        0.5561454127
 C        -6.5217491743        7.0899682392       -0.0523408120
 C        -7.4948716785        6.6672154222       -2.4816910146
 C       -10.3551234395        1.8760069278       -1.7469901908
 C       -10.5972467178        2.0238837519        0.8931674049
 C        -8.5154815265       -5.1374392848        0.4911768841
 C       -10.8967748214       -4.6754782659       -0.2011670106
 C       -10.1938559576       -1.7571812926        6.4513790631
 C        -9.2405682459        0.3165030079        5.2026616861
 H        -6.5881692664       -3.0760931557        5.5347889396
 H        -8.0307477246       -3.5355110065        6.3575958402
 H        -7.1951338207       -1.9588114712        6.8454852823
 H       -12.1990276534       -2.5366086236        4.2399743951
 H       -11.1053840940       -3.6351129112        4.5949783631
 H       -11.9992511437       -3.2054966486        1.6591771964
 H       -12.2619370124       -4.5133208797        2.5269408391
 H       -10.2202163254       -2.4860984767       -1.5225182978
 H        -8.4092368791       -2.8972724217       -1.4257816823
 H        -8.8550779289       -0.5600804102       -2.1826199297
 H        -7.9863286793       -0.6345857330       -0.4946387831
 H        -8.1465205994        2.7916969364       -1.8934117866
 H        -6.7997190953        1.8170277368       -2.0449743461
 H        -5.4942560741        2.9957650844       -0.5682448895
 H        -6.6372582954        3.9251464642        0.3931327632
 H       -10.6734614986        5.7298983413       -0.6168702402
 H        -9.8522082909        6.8774878711       -1.5080844483
 H        -9.6253524004        7.3563344356        1.4269344127
 H       -11.2565991655        7.8531771557        0.6579731598
 H       -11.4220135030       11.3894868316       -1.6852507704
 H       -13.0218548919       11.3994493250       -1.0387020124
 H       -13.0946599171        8.9343206183       -1.7202116100
 H       -11.5335428917        9.1096504323       -2.6397981979
 H       -12.7684376351        6.8666630725       -5.8005377699
 H       -11.5431503240        7.1193910383       -4.4933120233
 H       -10.8497113560        7.5187363775       -5.9457159988
 H       -15.1308522882        8.3885088173       -3.1851847017
 H       -13.8495030905        7.2665550904       -3.5607483737
 H       -15.0976256938        7.6681654493       -4.8101427217
 H       -14.5041191943       11.2068208787       -4.9706588964
 H       -15.6266823477       10.0362734793       -5.4881089363
 H       -14.1846076447       10.1733644871       -6.4786522848
 H        -9.5218348845        9.3528168993        2.6674941451
 H       -11.2720339479        8.9507655090        2.3065161237
 H       -10.4585356253       10.6313572975        2.9336763418
 H        -9.1147699106       11.9621752594        1.5773455950
 H        -9.8067381692       12.1504200232       -0.0454246446
 H        -8.4002175556       11.0308969213        0.1050382511
 H        -5.8100807929        6.5708575483        0.5882151223
 H        -7.2480899662        7.7087218151        0.5651733253
 H        -5.8899037812        7.7566830169       -0.7391271983
 H        -6.6362320596        6.3211596960       -3.1393443410
 H        -7.3587907582        7.7818109434       -2.2536303990
 H        -8.5113908864        6.4178064047       -2.8833339750
 H       -10.7638941962        1.0363521026       -2.3312972750
 H        -9.7676318772        2.6129262651       -2.3876751782
 H       -11.2386703795        2.5139420818       -1.5311113379
 H       -10.5839794002        3.1302678075        0.9606059362
 H       -10.2106205082        1.4387153519        1.7866173652
 H       -11.6238720349        1.7600737657        0.8573818695
 H        -7.7922893926       -4.8605986583        1.3317172538
 H        -7.8429069495       -5.0891246146       -0.4599155208
 H        -8.7019851636       -6.2016906334        0.5517802762
 H       -11.3505490239       -5.5398908787        0.2313002442
 H       -10.4620946220       -4.9947745027       -1.1904214020
 H       -11.5975281980       -3.8672820934       -0.3755243485
 H        -9.8058868645       -2.7694618498        6.5244372721
 H       -11.2776981075       -1.5798357571        6.3353337155
 H        -9.7889393334       -1.1345528110        7.2812335861
 H       -10.1892031671        0.8424452947        5.3846934738
 H        -8.9001212777        0.7742684300        4.2384408738
 H        -8.5270364301        0.6248613580        6.0623956749
 Na       -8.0814561989        0.0054625839        2.2435131629
