117

 C        -7.5248620038       -2.7826696152        6.1089124255
 C        -8.0309464107       -1.8598250662        5.0031216048
 O        -7.4153416453       -1.5226618464        4.0303066384
 C        -9.5975433417       -1.2742654245        5.1465648006
 C       -10.3344040132       -1.6577508540        3.8988150744
 O       -10.1802938744       -1.0226239526        2.8389667743
 C       -11.2117865746       -2.8671751157        4.0281548305
 C       -11.4507137374       -3.6464930421        2.8160439812
 C       -10.1506068556       -4.2330587760        2.2911341032
 O        -9.3924877372       -4.4366336635        3.1915647919
 C        -9.6705396335       -4.2967066513        0.7923065649
 C        -9.1279351414       -2.8504164155        0.4016743537
 O        -8.5775000389       -2.1625552897        1.2373015237
 C        -9.4064143563       -2.3507299793       -1.0784417373
 C        -8.9821610135       -0.9196243718       -1.2113961790
 C        -9.8840948598       -0.0972665192       -0.2560952302
 O       -10.7373394985       -0.6622173579        0.3488836642
 C        -9.7797896676        1.5203564586       -0.3243725692
 C        -8.3425105102        2.0262508998       -0.1643378198
 O        -7.7612251793        1.7908168714        0.8937793011
 C        -7.4358898276        2.6531365008       -1.2671818155
 C        -6.3280721040        3.5228955067       -0.6343532443
 C        -6.3652540421        4.7865454359       -1.4405718680
 O        -5.6701941600        4.7659617026       -2.5023481116
 C        -7.1128650274        6.1088322490       -1.1486631394
 C        -8.5267555104        5.6362617379       -0.3779612657
 O        -8.6050290565        4.5585000871        0.2361190290
 C        -9.9326398565        6.3785292030       -0.5534243788
 C       -10.0797697663        7.4176060260        0.4976746297
 C        -9.5789412990        8.8902673195       -0.0656397839
 O        -8.9182096603        9.0362024804       -1.0435640211
 C       -10.1484408187       10.0764516807        0.6490980999
 C       -11.6740608622       10.0468119105        0.0917922531
 O       -12.3618866052        9.1836857160        0.5128782570
 C       -12.2051991450       10.9126547236       -1.0585070922
 C       -12.4551815909        9.7216981460       -2.0730010203
 C       -13.2613210899       10.2709621049       -3.2907228056
 O       -13.7658469597       11.4233103902       -3.2331762232
 C       -13.5472861236        9.3903676825       -4.4923071938
 C       -12.1772461440        8.8809814448       -5.2178624604
 O       -11.3942518727        9.7443360256       -5.4795004817
 C       -12.0988890936        7.3904702169       -5.8360670387
 C       -14.2970557156        8.1564573618       -3.8789370950
 C       -14.5159195691       10.1228868767       -5.5165155884
 C       -10.3422461423        9.8795526771        2.1426480746
 C        -9.3618547848       11.3883963891        0.3931766704
 C        -6.3259968702        7.1365058227       -0.2493924929
 C        -7.4187943327        6.8361103743       -2.5369065882
 C       -10.4998421472        1.9797507732       -1.6434466769
 C       -10.5299478348        2.1025017960        0.8447300043
 C        -8.3080464065       -5.1116274381        0.4429527498
 C       -10.8931561413       -4.7142995242       -0.2316955682
 C       -10.3931940079       -1.7061794724        6.4258182831
 C        -9.3867679211        0.3256842988        5.3589499442
 H        -7.0866477870       -3.6559527593        5.6266222534
 H        -8.3892931589       -3.1698538895        6.7084002997
 H        -6.8448104439       -2.1658819565        6.7448182194
 H       -12.1624533781       -2.6009514368        4.5654883574
 H       -10.9253182236       -3.6462144798        4.8103150066
 H       -11.9176618565       -3.1881904642        1.8824560277
 H       -12.2364248525       -4.3936634508        2.8055163129
 H       -10.4618518399       -2.3720565743       -1.1885577031
 H        -8.8568640522       -3.0060022290       -1.7756197031
 H        -9.1405461216       -0.6237305598       -2.2524443079
 H        -7.9697748120       -0.8008349103       -0.7785657144
 H        -8.1861316264        3.0324196238       -1.9516135141
 H        -6.9681645266        1.9656912604       -1.8502851822
 H        -5.4424866743        2.9834808956       -0.8551156063
 H        -6.4124488477        3.7626928859        0.4410816059
 H       -10.6323928837        5.5743467465       -0.3707265880
 H       -10.1815869235        6.7459272244       -1.5649796050
 H        -9.5897605155        7.2046391112        1.4931885829
 H       -11.1382997579        7.6841905563        0.6008382137
 H       -11.4582514300       11.6189408745       -1.5114344154
 H       -13.0923760002       11.4945161571       -0.6749076528
 H       -12.9024290531        8.8945895972       -1.6253820787
 H       -11.4557942494        9.3912562329       -2.4799768772
 H       -13.0199410608        7.2203903253       -6.3654758193
 H       -12.0108425958        6.5867655060       -5.0323320273
 H       -11.1247950741        7.3151000871       -6.3085463935
 H       -14.7156540942        8.3254418924       -2.8547425611
 H       -13.7058638398        7.2572637219       -3.7516387525
 H       -15.0255881897        7.8773794692       -4.5322592732
 H       -14.5293801003       11.1262403002       -5.1320329528
 H       -15.5649117551        9.8921052656       -5.6263395508
 H       -13.9837709540       10.0469369464       -6.4245001669
 H        -9.4393648206        9.9642144539        2.7240915278
 H       -10.8747222937        8.9232067406        2.2214461139
 H       -10.8295059037       10.7465908565        2.5441029042
 H        -9.4828562616       11.9869730726        1.2754947819
 H        -9.7628860017       12.0366519462       -0.3903735919
 H        -8.2987404284       11.1610234912        0.2967368175
 H        -5.5402739427        6.6389987159        0.2323745518
 H        -7.0408546782        7.4480483161        0.5759148022
 H        -5.9933306819        7.9323330716       -0.7732633831
 H        -6.5762158004        6.8574683550       -3.2099665272
 H        -7.6925759397        7.7652079923       -2.1502689418
 H        -8.3781306715        6.2927648254       -2.9414345536
 H       -10.7958349433        1.1101242012       -2.3146281810
 H       -10.0107687099        2.8231647162       -2.2399894378
 H       -11.4615186159        2.4527198574       -1.3944187115
 H       -10.2057240032        3.1428835406        0.7565995224
 H       -10.5031279485        1.6268015936        1.8111695997
 H       -11.6081536100        2.1896147586        0.5882036321
 H        -7.5341837411       -4.9186452882        1.0726684950
 H        -7.8940725650       -5.0167986693       -0.5964221128
 H        -8.4761338639       -6.1848723487        0.4732589254
 H       -11.7439435887       -5.4312852040        0.2031845078
 H       -10.3679285311       -5.2384103127       -1.0710031871
 H       -11.3552251885       -3.8758288924       -0.5881348092
 H        -9.9120761596       -2.6570806778        6.7380069823
 H       -11.4352383873       -1.7816832254        6.0964560795
 H       -10.3259961931       -0.9424823209        7.1477986447
 H       -10.3431838833        0.8459875577        5.4673188548
 H        -8.9868805687        0.7373368856        4.5252071189
 H        -8.7872053502        0.6020580237        6.2532710959
 Na       -8.0218184535       -0.0887746072        2.1876496734
