117

 C        -7.5804988806       -2.8588611786        6.0561033245
 C        -8.0569409669       -1.8068778162        5.0837710813
 O        -7.3554968701       -1.5048955401        4.1574435129
 C        -9.5779112027       -1.1928473063        5.3330739154
 C       -10.4189286905       -1.6414517325        4.0654024522
 O       -10.2456301225       -1.0127867559        3.0251760122
 C       -11.3487724323       -2.8377081369        4.1104887854
 C       -11.5022119208       -3.5674724815        2.8145941871
 C       -10.0438041207       -4.1859753907        2.4138248212
 O        -9.3845276369       -4.6973975244        3.2953288340
 C        -9.6064297285       -4.2759535152        0.8142760074
 C        -9.2327353691       -2.8606073037        0.3310549619
 O        -8.5274060066       -2.2539694973        1.1410236957
 C        -9.4623680480       -2.4214568934       -1.1158057500
 C        -9.0195819420       -0.9168572583       -1.3085103410
 C        -9.9245855692       -0.0305780131       -0.2696241085
 O       -10.6912908882       -0.7339578270        0.4134285564
 C        -9.8826780530        1.5759456569       -0.3148215062
 C        -8.3902376885        1.9221048521       -0.1544544917
 O        -7.8295379440        1.7251330055        0.9456675593
 C        -7.5098742834        2.7728976248       -1.2461391645
 C        -6.2355569619        3.4628234823       -0.7078761729
 C        -6.2876759010        4.8691151365       -1.6095225088
 O        -5.7980409631        4.8922034273       -2.6515402508
 C        -7.2833011075        6.1302623919       -1.2533682235
 C        -8.5074647123        5.6166904046       -0.5662351006
 O        -8.3117919874        4.6772516717        0.2179398027
 C        -9.8076405691        6.3202828818       -0.6906615676
 C        -9.8580340097        7.3983171733        0.3860480283
 C        -9.5795102182        8.9707767779       -0.1313442024
 O        -8.8385877326        9.0297421770       -1.0645988690
 C       -10.2250078066       10.1638371385        0.6764973999
 C       -11.7165884031       10.0337120315        0.1542706512
 O       -12.3671286527        9.0417443917        0.5743778643
 C       -12.1476669314       10.9086327621       -0.9753490991
 C       -12.4131448483        9.9234766971       -2.1841790499
 C       -13.1205536160       10.4845834609       -3.4199229082
 O       -13.5474555246       11.6172004257       -3.4637124233
 C       -13.5131931017        9.3383215845       -4.5009216175
 C       -12.3259284068        8.8821601702       -5.2703741007
 O       -11.3696564336        9.5849829286       -5.2803327116
 C       -12.3655632406        7.5741218599       -6.0631885454
 C       -14.2670135935        8.0216093943       -3.7830669219
 C       -14.3216446946        9.9596496063       -5.5759556638
 C       -10.2176621442       10.0474836069        2.2523945251
 C        -9.4241858486       11.4002447282        0.1748692725
 C        -6.2536510227        6.9813175332       -0.3513141034
 C        -7.5169130467        6.8985573115       -2.5185915718
 C       -10.5668160405        2.0522400154       -1.6568475355
 C       -10.5676035925        2.2213423832        0.9557231790
 C        -8.4315447486       -5.1293610351        0.5768289034
 C       -10.7628548832       -4.8780017737       -0.0380917108
 C       -10.5124627330       -1.6512112163        6.6018757751
 C        -9.5134500292        0.3188593288        5.3911756815
 H        -7.4998499626       -3.8351893989        5.4811008474
 H        -8.1431488497       -2.9650990169        6.9961285037
 H        -6.6000506859       -2.4123990164        6.2701264304
 H       -12.2805799785       -2.5749555477        4.7111418296
 H       -11.0627465842       -3.6413363033        4.8169518176
 H       -11.8378145414       -3.1066303316        1.9063973214
 H       -12.2143404791       -4.2807249462        2.6977550332
 H       -10.4892842881       -2.4861701015       -1.3067255679
 H        -8.8219630520       -3.1143179193       -1.6912902318
 H        -9.4493421966       -0.6803282098       -2.2708154712
 H        -7.9564203641       -0.7693624351       -1.2077821135
 H        -8.2640483100        3.1631735711       -1.9452127242
 H        -7.1421867692        1.9643752269       -1.8369949768
 H        -5.3040624643        2.8726132424       -0.8415662329
 H        -6.4875838459        3.5852615538        0.3586698614
 H       -10.5689506152        5.5918576540       -0.4927119308
 H       -10.0356655602        6.7164516029       -1.7551123530
 H        -9.1053728255        7.3551512004        1.1836665478
 H       -10.8482502486        7.4394643546        0.7791140010
 H       -11.5084252991       11.8738780871       -1.0746696242
 H       -13.1459381467       11.1749463567       -0.5556360301
 H       -13.0167295031        9.1751963448       -1.7529133951
 H       -11.5892576583        9.3978198248       -2.5911846422
 H       -13.1853676957        7.6106627514       -6.7130209220
 H       -12.4748893570        6.7390385474       -5.3784115835
 H       -11.4118102188        7.4602586632       -6.4997900098
 H       -14.7158053988        8.3519405371       -2.8571273577
 H       -13.6294391485        7.2682122181       -3.4356295231
 H       -14.9252441115        7.4267890677       -4.4305771473
 H       -14.4345768134       10.9759718174       -5.3289495769
 H       -15.3581119428        9.6087052809       -5.6175053749
 H       -13.7963445316        9.7687295312       -6.5066450880
 H        -9.2427509362       10.4454705623        2.6426616158
 H       -10.4331377965        9.1123831890        2.5070608538
 H       -10.8366736530       10.7923235647        2.7071413862
 H        -9.7056964961       12.2615744691        0.6138400943
 H        -9.5686724712       11.5672208094       -0.8958822000
 H        -8.4193495933       11.2002344596        0.4858489668
 H        -5.4691422746        6.3066234754       -0.0208214547
 H        -6.6361769827        7.3105899090        0.5088097852
 H        -5.8955577104        7.7672711033       -0.9955268950
 H        -6.5657082917        7.2816850797       -2.7631879940
 H        -8.2667498137        7.6530943395       -2.4179331768
 H        -7.7499143860        6.1449237892       -3.1692963521
 H       -10.4329293149        1.2603717042       -2.4153629863
 H       -10.1565440360        2.9715129907       -2.0002220072
 H       -11.6467492541        2.2903083655       -1.6232243554
 H       -10.2896693799        3.2590245407        0.9042456666
 H       -10.2845725173        1.7570892902        1.8780265756
 H       -11.6868395096        2.1590561723        0.8835837262
 H        -7.6148880982       -4.9227274620        1.2413396404
 H        -8.1009740659       -5.1398073275       -0.3528974312
 H        -8.6948838880       -6.1567479918        0.7545145818
 H       -11.2842254732       -5.6316827749        0.5558967688
 H       -10.3868889296       -5.3276006186       -0.9731001620
 H       -11.5677511460       -4.0024302938       -0.1288716085
 H       -10.4492828532       -2.7088202854        6.6585408399
 H       -11.4242163869       -1.3325842529        6.1674404076
 H       -10.3190546226       -1.0930905821        7.5045027168
 H       -10.4718972370        0.7671213820        5.3116080171
 H        -8.9806813271        0.6034463050        4.4811300399
 H        -9.1140052445        0.7086164768        6.2135144001
 Na       -8.0537142954       -0.2492623197        2.1819351659
