117

 C        -7.6263891453       -2.9804855332        6.1072355415
 C        -8.2127788990       -1.8077005455        5.3067853187
 O        -7.6185476906       -1.3121441855        4.3426804993
 C        -9.6583890176       -1.1597225614        5.3833895463
 C       -10.4426684429       -1.6334317034        4.1671392501
 O       -10.2969284502       -0.9973112090        3.1567354517
 C       -11.3905770282       -2.8353135382        4.1327449224
 C       -11.3054304633       -3.4574559973        2.7507259259
 C       -10.0460464397       -4.2657990807        2.3956511229
 O        -9.3808894356       -4.8860029485        3.2001528354
 C        -9.7054910453       -4.3708987003        0.9181710799
 C        -9.1670587652       -2.8481242683        0.3662974555
 O        -8.3753909656       -2.2301867325        1.0098258408
 C        -9.4121620255       -2.4138156853       -1.1331039920
 C        -9.2430169716       -0.8409894896       -1.3246404951
 C       -10.1002468575       -0.0104581509       -0.3846365396
 O       -10.6897358132       -0.4790252436        0.5377365492
 C        -9.8082913956        1.5620760510       -0.3750415065
 C        -8.3549544243        1.9243967923       -0.0482208813
 O        -7.8045191853        1.5251802076        0.9388420557
 C        -7.5601177462        2.6332347495       -1.2121281508
 C        -6.3191614242        3.5851338986       -1.0827131958
 C        -6.3801405877        4.8590569403       -1.8911328068
 O        -5.6862067345        4.8452546052       -2.8861530162
 C        -7.0940485045        6.0444369769       -1.4382163629
 C        -8.3632157727        5.6618194657       -0.5073713557
 O        -8.3561120114        4.8484641763        0.3699317374
 C        -9.7177293043        6.4137847345       -0.7206279789
 C        -9.7987190931        7.4372581248        0.4143735629
 C        -9.4195673068        8.8316088715       -0.0210212885
 O        -8.8448840710        9.1846489016       -1.0555428888
 C       -10.1609567686       10.1082137574        0.6575054873
 C       -11.7204187214       10.0217223826        0.2119820837
 O       -12.3496989441        9.0572352593        0.6744988478
 C       -12.2967286970       10.8567530001       -1.0046347531
 C       -12.3517193917       10.0281974630       -2.2218471459
 C       -13.1939331149       10.5491818486       -3.4168317796
 O       -13.2764978089       11.6510152024       -3.8041244525
 C       -13.6012737602        9.4066267085       -4.4589020101
 C       -12.2262494932        8.8634302615       -5.2047286981
 O       -11.1082085979        9.3847124955       -5.1365084547
 C       -12.5502030491        7.7291161313       -6.3044970594
 C       -14.2512264641        8.1490434309       -3.7355499061
 C       -14.5282269643        9.9016950089       -5.6845658848
 C       -10.0142504577       10.1631597052        2.1806522545
 C        -9.5467783946       11.3882416148        0.0260433913
 C        -6.1990429527        6.8660728035       -0.2813574780
 C        -7.5419530437        6.9128774153       -2.7497617142
 C       -10.5133086023        2.0495527712       -1.5625274851
 C       -10.6473948224        2.1775718369        0.9215487049
 C        -8.4447508755       -5.2847627817        0.8880756821
 C       -10.8876239492       -5.0191649592        0.1877086868
 C       -10.3025685260       -1.6296903063        6.8076620885
 C        -9.5665886153        0.3639984638        5.3498465884
 H        -8.0941530761       -3.8325243292        5.5820266074
 H        -7.7971003128       -2.9833642752        7.1995960049
 H        -6.5576620509       -2.9342163338        5.9244169422
 H       -12.3880720516       -2.4056412750        4.2030110420
 H       -11.5391273510       -3.4779324124        4.9495277619
 H       -11.4623905247       -2.8333602835        1.9586680492
 H       -12.1053966772       -4.0628922041        2.3666238089
 H       -10.4099611808       -2.8295875850       -1.4387296200
 H        -8.5562785024       -2.8197057977       -1.6139033242
 H        -9.3501006460       -0.5741839030       -2.3666260113
 H        -8.2634817176       -0.6441653112       -0.9365770704
 H        -8.4309527719        3.0038826540       -1.7417251886
 H        -7.4255470226        1.6237800731       -1.8821870871
 H        -5.3101043460        3.1192418688       -1.3454427580
 H        -6.3989642215        3.8126413573       -0.0117321206
 H       -10.5150594413        5.6125752321       -0.6201258183
 H        -9.8355290072        6.8205297568       -1.7157549349
 H        -8.9965326140        7.4240486321        1.1254095704
 H       -10.7459749539        7.6075384193        0.9433358856
 H       -11.5377296658       11.6154400809       -1.1730259335
 H       -13.2652521618       11.3126642879       -0.7265166272
 H       -12.5124889942        8.9359334538       -1.9468304686
 H       -11.4129510446        9.9968830377       -2.6980641035
 H       -13.3883227518        8.1913162964       -6.8892529387
 H       -12.8505292605        6.8726970785       -5.8633436102
 H       -11.7099673799        7.5139730966       -6.9684034789
 H       -15.0168036784        8.4433229932       -3.1016530402
 H       -13.5952816619        7.6720287115       -2.9987598619
 H       -14.4473346848        7.2111506807       -4.3577348412
 H       -14.7052609472       10.9809837646       -5.5869058968
 H       -15.4971830693        9.4560095811       -5.5711316735
 H       -14.0652013639        9.6167895556       -6.6307326036
 H        -9.0807149001       10.6039559455        2.3665822723
 H       -10.1323011970        9.1481274965        2.6641760676
 H       -10.6504749791       10.8902227101        2.6513291591
 H       -10.2894190821       12.2586920993       -0.0661568685
 H        -9.3586409873       11.1794636667       -0.9641414018
 H        -8.7559922109       11.7591476175        0.6332207264
 H        -5.5591492652        6.2542423534        0.3604382563
 H        -6.8984731942        7.2199438399        0.4797915492
 H        -5.7440955416        7.7140957293       -0.8659917096
 H        -6.7598834140        7.6103872600       -2.9265330275
 H        -8.5075421126        7.3853767102       -2.7110216080
 H        -7.4538517143        6.1735013895       -3.4576182239
 H        -9.9912499848        1.7748214498       -2.4201554023
 H       -10.5916474656        3.1050938719       -1.4677110653
 H       -11.5260096708        1.7458536221       -1.7096875808
 H       -10.5728452897        3.2596538650        0.9630245273
 H       -10.0493715964        1.7308025947        1.7493684145
 H       -11.6321100001        1.8181567033        1.0283178561
 H        -7.6485273815       -4.8036910256        1.5051280878
 H        -8.0690000952       -5.4027814810       -0.1441925494
 H        -8.5297737288       -6.2577154372        1.2673433421
 H       -10.8594591332       -5.9510624999        0.6234575641
 H       -10.7108287875       -5.1494980658       -0.9161454755
 H       -11.9164223769       -4.6395764721        0.5141157896
 H       -10.6913141351       -2.6048329603        6.7462020477
 H       -11.0102852946       -0.8840622823        7.0137462866
 H        -9.4592465075       -1.4679209324        7.4733563929
 H       -10.4982195712        0.8304851799        5.2352527137
 H        -8.8993981287        0.6799084220        4.5096196685
 H        -9.2297500452        0.7616859779        6.3268845247
 Na       -8.1817649115       -0.4277067600        2.2326265235
