117

 C        -7.9487542552       -3.0154212845        6.0340551962
 C        -8.2604156795       -1.6487894523        5.3010885330
 O        -7.5343105712       -1.1793460603        4.4863149158
 C        -9.7563734501       -1.0534258924        5.7276042412
 C       -10.5474754579       -1.6193780453        4.4512797429
 O       -10.3834392643       -0.8524855984        3.4970860670
 C       -11.3347246922       -2.8832635011        4.2592570265
 C       -11.3478747363       -3.3061731917        2.7842867458
 C       -10.0830753737       -4.1991627110        2.4586125591
 O        -9.6805322375       -4.8030673783        3.4240257044
 C        -9.5176085135       -4.4747539913        0.9439816824
 C        -9.0942285667       -3.1120883071        0.3859319762
 O        -8.1856743864       -2.5082552881        0.9791196379
 C        -9.7115867528       -2.5238409393       -0.9773533454
 C        -9.4417290553       -1.0029186221       -1.2301833823
 C       -10.1999318126       -0.0093216028       -0.2151904256
 O       -10.8274607710       -0.5630400694        0.7211677280
 C        -9.8614293850        1.5192399013       -0.1867965086
 C        -8.2961455538        1.7820754499       -0.2780119977
 O        -7.6300487408        1.2676243342        0.6268461045
 C        -7.5896335251        2.6780561074       -1.4605691275
 C        -6.2281884626        3.3730770230       -1.1946026184
 C        -6.3988487119        4.5565779608       -2.0765833757
 O        -5.7555732898        4.6492584398       -3.0748292622
 C        -7.1253774518        5.9371772789       -1.6133241157
 C        -8.3467463333        5.7941925566       -0.6219499181
 O        -8.1149961548        5.0461652556        0.3549670479
 C        -9.7292598649        6.5611820726       -0.6387618964
 C        -9.7859730203        7.6279480772        0.4781605329
 C        -9.4972153000        9.1517782735       -0.1946675189
 O        -8.6387589414        9.0478991562       -1.0335372506
 C       -10.1607713919       10.3748558552        0.3702934542
 C       -11.8017861294       10.1065615765        0.1945777131
 O       -12.2488035687        9.2412773217        0.8966132361
 C       -12.6098740416       10.6916683751       -1.0833145824
 C       -11.9493557211       10.1079572958       -2.4137869399
 C       -12.8524378399       10.6332863826       -3.6435045238
 O       -12.9083671472       11.8123641105       -4.0299723660
 C       -13.5966114902        9.4100138414       -4.5414046270
 C       -12.3591401393        8.7117297632       -5.3271669858
 O       -11.3468915711        8.7462816547       -4.7269778544
 C       -12.4641481542        7.9582744054       -6.7166492115
 C       -14.2120348546        8.2248029954       -3.7676793244
 C       -14.7123023966       10.1736598387       -5.4338311573
 C        -9.9515024263       10.2295360644        1.9662544966
 C        -9.6527379568       11.7039549859       -0.0795313917
 C        -6.0514848944        6.6630501807       -0.6864992765
 C        -7.2996688327        6.9355450535       -2.8333293112
 C       -10.4988557955        2.0698245636       -1.5110621495
 C       -10.6074717841        2.2123530460        0.9310572996
 C        -8.3235994952       -5.3818423513        0.8435896966
 C       -10.6691514873       -5.1025394921        0.1098189675
 C       -10.2539638906       -1.5401197151        7.0582969530
 C        -9.6894562215        0.4495971394        5.7602151088
 H        -8.8984708314       -3.3557335775        6.4206748632
 H        -7.1482524239       -2.8848496880        6.7653994021
 H        -7.5373246835       -3.7445554197        5.3583625356
 H       -12.3940720700       -2.8967346175        4.5310505738
 H       -11.0018085455       -3.5473663463        5.0660662968
 H       -11.5926095871       -2.4836985072        2.0063392197
 H       -12.1406874341       -3.9249144831        2.3696326499
 H       -10.7532797999       -2.7182263927       -0.9580592280
 H        -9.1194061001       -2.9885275008       -1.8222279464
 H        -9.7776443742       -0.8789034939       -2.2822887202
 H        -8.3275660178       -0.8428834707       -1.1331630595
 H        -8.4144843724        3.3735247817       -1.7071171084
 H        -7.4509416885        2.0068318424       -2.2310771701
 H        -5.4896378149        2.8040071976       -1.7540534331
 H        -5.9172327238        3.6393137037       -0.1510193775
 H       -10.4472182053        5.8786848165       -0.2720070626
 H        -9.9275985853        6.8288242881       -1.7021710624
 H        -9.1036850740        7.4039228141        1.3502930913
 H       -10.7976173448        7.6637456588        0.8552369432
 H       -12.4748445900       11.7940183098       -1.1714112025
 H       -13.5982472986       10.2477650948       -1.0084189029
 H       -11.9382878238        9.0416091478       -2.4289378012
 H       -10.8336368300       10.4103873148       -2.5787408872
 H       -12.9902375668        8.5852595909       -7.4385709456
 H       -12.8592575443        6.8561204124       -6.5304202418
 H       -11.4037019711        7.9561871615       -7.1008461486
 H       -15.1535090257        8.5021133218       -3.2042523998
 H       -13.6472074043        7.6943034787       -3.0219394130
 H       -14.3613381850        7.4576097165       -4.4701980031
 H       -15.1309507212       11.0476280134       -4.9339269378
 H       -15.5417170693        9.4263952210       -5.5284136933
 H       -14.3284704615       10.4327750609       -6.4330661172
 H        -8.8089850979       10.0571592775        2.2461557429
 H       -10.5633454136        9.4790798915        2.3532233832
 H       -10.3052548601       11.2152121854        2.4170780820
 H       -10.3188237867       12.4777260981        0.1464833155
 H        -9.5937143414       11.7026213618       -1.2347943860
 H        -8.7454926272       11.9684454495        0.5333993300
 H        -6.2272888233        6.1536888389        0.2942394421
 H        -6.2981337331        7.6571515671       -0.3931899084
 H        -5.0583242244        6.5545658838       -1.1758222578
 H        -6.2735506718        7.4145441855       -2.9432258096
 H        -8.0000433534        7.6998106768       -2.3622239707
 H        -7.6017774586        6.4870747803       -3.7949487263
 H        -9.7353689982        1.9512737873       -2.3184327882
 H       -10.9730883635        3.0435594487       -1.5384589272
 H       -11.2475881554        1.3616648506       -1.8983079828
 H       -10.4400697233        3.2939547190        0.7932138983
 H       -10.2374228476        1.9892643443        1.9171256724
 H       -11.7038082615        1.9299820729        0.8031302407
 H        -7.3568394168       -4.9798911526        1.2269254306
 H        -8.2083517377       -5.7459364154       -0.1469980090
 H        -8.4421120928       -6.3448739474        1.5025142452
 H       -10.8780905004       -6.2041706253        0.1087171921
 H       -10.3708807646       -4.7914001486       -0.8209837453
 H       -11.5650344644       -4.5843303982        0.5844386848
 H       -10.9092458876       -2.4344286501        6.9287408519
 H       -10.8049723737       -0.6937652522        7.5118703628
 H        -9.3155871459       -1.6081188553        7.5881404598
 H       -10.6834839566        1.0341700630        5.8040668407
 H        -9.0369605713        0.7867857711        4.9193627825
 H        -9.2285707651        0.7340043389        6.6788796542
 Na       -8.4682195826       -0.4816188894        2.3420411632
