117

 C        -7.8558388483       -3.0489726331        5.9502928194
 C        -8.3887540139       -1.6988730591        5.4628484802
 O        -7.7478965893       -1.1237616010        4.5489610570
 C        -9.9095737447       -1.1039226702        5.8068708054
 C       -10.6034286709       -1.2663509309        4.5260866500
 O       -10.6329169078       -0.4702539948        3.5956360619
 C       -11.1327920200       -2.7292687372        4.3621441087
 C       -11.1984401594       -3.2307823958        2.9108134755
 C       -10.0672635706       -4.2619835103        2.5307188657
 O        -9.4578856260       -4.8678819182        3.3751465964
 C        -9.6604846212       -4.4238207492        1.0189717447
 C        -9.2328965940       -3.0781091147        0.5365435847
 O        -8.3303052206       -2.4643053292        1.0474772769
 C        -9.9704176007       -2.5019622130       -0.5978135912
 C        -9.5006500172       -1.1145537898       -1.0369204129
 C       -10.0898835108       -0.1815623798       -0.0123006730
 O       -10.7907622245       -0.4755457602        0.9089883805
 C        -9.8612716272        1.3057096010       -0.3575981539
 C        -8.2730671821        1.4618687799       -0.4766382926
 O        -7.6672364626        0.9302772256        0.4217064460
 C        -7.9362147949        2.6583554380       -1.4029276999
 C        -6.6513916243        3.2984589639       -1.0773750734
 C        -6.5131169862        4.5371060052       -2.0696063735
 O        -6.0446969591        4.3506282556       -3.2441602920
 C        -6.8466918269        5.9751949564       -1.5252057076
 C        -8.0349378146        5.8025697101       -0.6308225755
 O        -8.0794828735        5.0406373294        0.2915475484
 C        -9.3874401613        6.5926632222       -0.8792463756
 C        -9.7369358556        7.8157580754        0.0474898129
 C        -9.3316524979        9.1816322503       -0.3070101091
 O        -8.4487775041        9.5107162846       -1.1223287276
 C       -10.2133315484       10.3604316916        0.3666439462
 C       -11.9000975710       10.0313801607        0.1139205281
 O       -12.5339327548        9.5116398186        0.9993485425
 C       -12.4836648817       10.4739609419       -1.2723151313
 C       -11.6535972064       10.1184472148       -2.5104423409
 C       -12.5877291531       10.5833636247       -3.7215704490
 O       -12.7953590990       11.7047309644       -4.0798575403
 C       -13.4350204534        9.4686489812       -4.5219207084
 C       -12.3340296995        8.6291246914       -5.2902045368
 O       -11.5060043776        7.9238824549       -4.6717867657
 C       -12.6296408678        8.5825747161       -6.8203745960
 C       -14.2193338619        8.5998494304       -3.5589698156
 C       -14.3773473727       10.2091620295       -5.4196274517
 C        -9.9879731823       10.5001874871        1.8581900368
 C        -9.7896957086       11.6700073841       -0.4278206034
 C        -5.6001781464        6.6723566803       -0.8650210979
 C        -7.3154564787        6.7049267446       -2.7803787005
 C       -10.7043891206        1.6547226181       -1.5460594151
 C       -10.1891791269        2.2320503055        0.9038269381
 C        -8.3726356658       -5.3576250025        1.2264339274
 C       -10.6449208684       -5.1431717940        0.0524993707
 C       -10.5037607784       -1.7324603086        7.1175149834
 C        -9.5890231856        0.4521671322        5.9729225463
 H        -8.0919704620       -3.2115398379        6.9978620312
 H        -6.8231764564       -3.1351010073        5.5584287543
 H        -8.3843395355       -3.8593776806        5.3762822107
 H       -12.1383096842       -2.9815153896        4.8111170226
 H       -10.5514223840       -3.4532773369        4.9956016957
 H       -11.3311142068       -2.5599672437        2.1413068879
 H       -12.0876117494       -3.8498378269        2.6585888146
 H       -11.0075705178       -2.3861892343       -0.1770897301
 H        -9.9204321728       -3.2157533229       -1.3665985059
 H        -9.8711449160       -0.9136789762       -2.0434231852
 H        -8.4517294851       -0.9337062369       -0.9620265408
 H        -8.7674160081        3.3217945260       -1.1704432298
 H        -7.8909088724        2.1494012812       -2.4646196352
 H        -5.8432183928        2.5885195335       -1.3118340260
 H        -6.7102398399        3.8289959662       -0.1444170550
 H       -10.2162199069        5.8406966928       -0.6927055724
 H        -9.3573125576        6.9000199660       -1.8782621883
 H        -9.2568003846        7.7348906207        1.0057344704
 H       -10.7983682248        7.9687520459        0.2992895674
 H       -12.6581695897       11.5448936858       -1.2946175041
 H       -13.3361776613        9.7751742868       -1.3953800509
 H       -11.4350880845        9.0316309517       -2.5448189113
 H       -10.7433472458       10.5888178412       -2.6363004578
 H       -12.8795227949        9.5581497172       -7.1991186978
 H       -13.3676999690        7.8503139070       -6.8663463305
 H       -11.7949756424        8.3646124887       -7.4313511752
 H       -14.6913044209        9.0067536777       -2.7101274273
 H       -13.6104163956        7.7600533941       -3.1964570007
 H       -15.0264536902        8.0471988347       -4.1054823058
 H       -15.2548936432       10.5508975020       -4.8347951819
 H       -14.6584432142        9.6806712927       -6.2889490102
 H       -13.8703906041       11.1527610211       -5.6233515410
 H        -9.0991275378       10.1030968462        2.1285108245
 H       -10.8164204668        9.9018985420        2.4117880859
 H       -10.2007245699       11.4910602142        2.1359872955
 H       -10.0158142855       12.5546936589        0.2361966863
 H       -10.3164235973       11.8049465097       -1.3049061267
 H        -8.7526858404       11.7621734714       -0.5828551349
 H        -5.6921399489        6.8303549494        0.1605610429
 H        -5.6813364257        7.6953785377       -1.3642438018
 H        -4.7049028918        6.2654115112       -1.1189020733
 H        -6.8385635428        6.3507247317       -3.6197232226
 H        -7.3462146157        7.6977386568       -2.6318709964
 H        -8.3300853207        6.2879353996       -2.9213500009
 H       -10.9785882920        0.8776005964       -2.2711387136
 H       -10.2483739855        2.5251560371       -2.1244228823
 H       -11.6826029234        2.0634500975       -1.2446903213
 H        -9.6654920329        3.2024921280        0.9413900910
 H        -9.7935583020        1.7624559786        1.8447129532
 H       -11.2312338560        2.2993983218        0.9077991853
 H        -7.6985599009       -4.8222832557        1.7656410945
 H        -7.9237603813       -5.4835102177        0.2116432279
 H        -8.4740486662       -6.2478444222        1.7460575103
 H       -11.0997808428       -5.8932237120        0.7162254888
 H        -9.9424751860       -5.6941138302       -0.6580267653
 H       -11.3592586871       -4.5023953695       -0.2882911758
 H       -10.2388124256       -2.7668578769        7.0200818239
 H       -11.5615078651       -1.7215287050        6.9709269917
 H       -10.1293794457       -1.2003469617        7.9784025679
 H       -10.4773494129        0.8964439170        6.2989796308
 H        -9.2540788516        0.9454445736        5.1423176909
 H        -8.8480314234        0.5799789320        6.7970767416
 Na       -8.5109229975       -0.2990168081        2.1990231246
