117

 C        -7.9004046271       -2.9489789046        5.9521828451
 C        -8.4933009648       -1.7080576921        5.3353985975
 O        -7.8645610610       -1.0495964405        4.4541972417
 C        -9.8335985206       -1.1779265743        5.8529796583
 C       -10.6273609784       -1.2855567606        4.4631880616
 O       -10.6477044897       -0.3269005042        3.7218816083
 C       -11.1727257676       -2.7092197670        4.2866039855
 C       -11.1911651562       -3.2639116478        2.8447390147
 C        -9.9905283982       -4.2896240403        2.5959420754
 O        -9.4821210642       -4.8409874227        3.5674956182
 C        -9.5359483582       -4.5281171258        1.1426271801
 C        -9.2492973719       -3.1512126352        0.5584451312
 O        -8.5165625792       -2.4265164601        1.2267044908
 C       -10.1365349436       -2.6139981356       -0.7723933025
 C        -9.6366651151       -1.1735395064       -0.9597965599
 C       -10.2135605913       -0.1499254572        0.0369254707
 O       -10.7768490334       -0.4573864140        1.0951692406
 C        -9.9890432407        1.3636989589       -0.2856121387
 C        -8.3651848141        1.5175813610       -0.4957704183
 O        -7.5586255457        0.8693634445        0.1629970194
 C        -7.9260345540        2.6201909134       -1.4896001585
 C        -6.4969400216        3.1769813386       -1.0652682382
 C        -6.3930903613        4.3994690228       -2.0055482686
 O        -6.2131076871        4.1315974240       -3.2444103753
 C        -6.8567679009        5.9194386547       -1.6780734714
 C        -8.0182404222        5.9380074982       -0.5146343042
 O        -8.1037425640        5.1856424537        0.4603159236
 C        -9.2655696048        6.7795687496       -0.9841641775
 C        -9.7134617189        7.8135940637        0.0705471159
 C        -9.3395913561        9.3034760012       -0.4102020535
 O        -8.4080101244        9.4932343355       -1.1428958862
 C       -10.2991632372       10.4391006725        0.3038715496
 C       -11.7806031464       10.0505314811        0.0620043854
 O       -12.4660470050        9.6817119531        0.9283982134
 C       -12.4263045100       10.3681475827       -1.2925931257
 C       -11.7033344804        9.9932041130       -2.6409818280
 C       -12.5158980947       10.5926366020       -3.8070898794
 O       -12.5633275513       11.8342989493       -3.9598037124
 C       -13.3604396444        9.4966127558       -4.5382019414
 C       -12.5023887653        8.4279104609       -5.3161103684
 O       -11.6965996488        7.6700607909       -4.8777067992
 C       -12.4049102865        8.7443290691       -6.8432740372
 C       -14.1774436597        8.7159398873       -3.3953437284
 C       -14.4081346198       10.1614714349       -5.4467011785
 C        -9.9405409333       10.5278150580        1.7912661589
 C        -9.9550731027       11.7776139171       -0.3666844025
 C        -5.5992391597        6.6579346704       -1.0323870794
 C        -7.1259898495        6.7978682422       -2.9708592788
 C       -10.8649910971        1.6047705660       -1.5411656581
 C       -10.1508881087        2.2362686322        0.8745380389
 C        -8.2589271250       -5.3760511675        1.2742162273
 C       -10.7230720184       -5.2681882094        0.3450198674
 C       -10.5045704836       -1.7765447780        7.0233181920
 C        -9.5122344684        0.3965334562        6.1792150001
 H        -7.6942662246       -2.5417742455        6.9179962032
 H        -7.0537483001       -3.1984542311        5.2929432322
 H        -8.4869628247       -3.8656439874        6.1365868571
 H       -12.1246784553       -2.8333390363        4.7470349208
 H       -10.5777230459       -3.3963823084        4.8720938701
 H       -11.1599519572       -2.5945436682        1.9894229380
 H       -12.0672593825       -3.8658963165        2.5484588427
 H       -11.2401795903       -2.7347711237       -0.6574285145
 H        -9.7247267159       -3.2612900098       -1.5595818683
 H        -9.7220122554       -0.8353759850       -1.9705372130
 H        -8.5832451246       -1.1282240313       -0.6784566425
 H        -8.7264591789        3.3886102491       -1.3515466064
 H        -7.7897303527        2.1048476146       -2.5138479177
 H        -5.8486736727        2.4720173341       -1.5275958480
 H        -6.3940627213        3.5691832516       -0.0275078429
 H       -10.1141252379        6.0326775438       -1.1240557702
 H        -8.9593112246        7.2396587607       -1.9058668413
 H        -9.4743299113        7.6020361024        1.1029805147
 H       -10.7961863140        7.9241649687        0.0721543720
 H       -12.3285623102       11.3882331448       -1.2490916356
 H       -13.4240081171        9.9752048035       -1.2678477129
 H       -11.6394023789        8.9171806957       -2.7588898738
 H       -10.6122170792       10.4036256557       -2.6527941867
 H       -11.9471793031        9.6559607770       -6.9640428323
 H       -13.3938022378        8.5982186442       -7.3664267568
 H       -11.6865277303        8.1253921271       -7.2966261336
 H       -14.8042807790        9.4379753914       -2.7331605393
 H       -13.7947838101        7.9121293644       -2.7149810722
 H       -15.0005948448        8.2706421347       -3.8891603646
 H       -15.1167976921       10.6606641298       -4.7667176136
 H       -14.8189103890        9.4888270112       -6.1848623156
 H       -13.9670791659       11.0403414036       -5.8463554408
 H        -8.9075367576       10.1860563302        1.9901815936
 H       -10.5520354588        9.8014107823        2.2620447599
 H       -10.3835669950       11.4257803060        2.1460621174
 H        -9.9783726397       12.5303188100        0.3629496781
 H       -10.5025271283       12.0837901508       -1.3000024797
 H        -8.8865294992       11.7553053287       -0.6761027647
 H        -5.6886739917        6.5984837219        0.1260112375
 H        -5.5888585780        7.7216471958       -1.3471336044
 H        -4.6103781772        6.2163190488       -1.2845182526
 H        -6.2747283300        6.9174316201       -3.5870949061
 H        -7.5286132216        7.7059336965       -2.5484128144
 H        -7.8819503664        6.2994982576       -3.5969058594
 H       -11.2325488739        0.6691261154       -1.9302105718
 H       -10.3602178005        2.0579100536       -2.3875533733
 H       -11.7301386387        2.1598731979       -1.3956645097
 H        -9.7150018037        3.2052673199        0.7016872266
 H        -9.6524786161        1.9683807673        1.7771814263
 H       -11.2284005466        2.2990687026        0.9425959716
 H        -7.5986056696       -4.9850773218        2.0574894858
 H        -7.7015877375       -5.3857041573        0.3298487977
 H        -8.4635252437       -6.4380032063        1.6749294918
 H       -11.0309688128       -6.0903292554        1.0861361712
 H       -10.3701905558       -5.6349641617       -0.5507406653
 H       -11.4579331253       -4.4632704300        0.3237857269
 H       -10.0170712897       -2.7353703372        7.1760208329
 H       -11.4699570076       -2.0562515923        6.6731151357
 H       -10.4843102739       -1.1317659819        7.8333466319
 H       -10.5060054565        0.8915755416        6.4623457634
 H        -9.1980607588        0.8609779565        5.2656108792
 H        -8.7287893282        0.6162069335        6.8945924033
 Na       -8.5158092492       -0.3078179872        2.2724450612
