117

 C        -7.3556276839       -2.7289692856        6.0996831960
 C        -8.3282501548       -1.7991753918        5.3204561413
 O        -7.9199811545       -1.2722090835        4.2600287906
 C        -9.7889920068       -1.2169503093        5.8271872246
 C       -10.7454168558       -1.2741332611        4.5788700716
 O       -10.7273626342       -0.3138464367        3.8470001625
 C       -11.7203503991       -2.4100359563        4.3281297908
 C       -11.2602657471       -3.1411097087        3.0727462642
 C       -10.0872855037       -4.2072525382        3.0532886216
 O        -9.5078141392       -4.5971278962        4.0519531273
 C        -9.6554405454       -4.6379840483        1.5778172550
 C        -9.4748738735       -3.2154100416        0.8919363822
 O        -8.6816412859       -2.5069644833        1.4811477238
 C       -10.0204053054       -2.7846395892       -0.4694474178
 C        -9.9984296874       -1.3266864222       -1.0500309254
 C       -10.4447338657       -0.2347216450       -0.0637921482
 O       -10.8069398195       -0.5448816789        1.0534558130
 C       -10.1563586033        1.3026514863       -0.3402310250
 C        -8.5693935400        1.2747377939       -0.4161600666
 O        -7.7510851741        0.6003307077        0.1855689752
 C        -8.0927630924        2.3638903775       -1.4198913118
 C        -6.8987754144        3.3612876834       -1.0541308331
 C        -6.6025548500        4.4039985897       -2.2004484718
 O        -6.3146937637        3.9082202401       -3.3538236536
 C        -6.6150887896        5.9572214877       -1.8524471182
 C        -7.8271136787        6.3005017204       -0.9749286619
 O        -7.7138414526        6.0114962488        0.1980240252
 C        -9.1499454585        6.9561544952       -1.3846673906
 C        -9.5521678191        7.9490372544       -0.2918298959
 C        -9.2274115940        9.4210343881       -0.5290814882
 O        -8.4283765900        9.8286198764       -1.3560797714
 C       -10.0010316208       10.5173458229        0.2378424383
 C       -11.6719949447       10.1526251408        0.0778018953
 O       -12.3678442659        9.8875322687        0.9675512735
 C       -12.2884904846       10.4875372116       -1.2988739291
 C       -11.7234501261        9.9130878389       -2.5764161037
 C       -12.3558370967       10.4051162328       -3.8755008433
 O       -12.0183827842       11.4819510664       -4.4083601832
 C       -13.4611366971        9.4771830945       -4.5467076211
 C       -12.6254647140        8.3719764033       -5.4679644990
 O       -12.8157778334        7.1612762205       -5.3551352359
 C       -11.6719700503        8.9875480359       -6.4748078067
 C       -14.3540439165        8.5533179453       -3.6724398583
 C       -14.2844615055       10.6088285781       -5.4766889942
 C        -9.7793143826       10.6795813114        1.8522671484
 C        -9.6024606014       11.8738255939       -0.2653814586
 C        -5.3466833140        6.1105561388       -0.9474868300
 C        -6.5926359636        6.8593773883       -3.2575615395
 C       -10.8792976079        1.7248261205       -1.6617236427
 C       -10.4887107795        2.0476412881        0.9601229254
 C        -8.2180432062       -5.1996101240        1.3709151894
 C       -10.7665623175       -5.6079128578        1.0508492739
 C       -10.3287683102       -2.0748256946        7.0986354509
 C        -9.6732888518        0.2068836611        6.1621010221
 H        -6.5879214279       -2.1667353334        6.5641699642
 H        -7.1318102254       -3.5303378942        5.3651043291
 H        -7.9113662163       -3.0517242341        6.9806931007
 H       -12.7476888904       -1.9050635024        4.1981466887
 H       -11.7288284549       -3.1304401949        5.2358770082
 H       -10.9751110083       -2.4650130651        2.2994578579
 H       -12.0926705694       -3.7400347042        2.5549793008
 H       -11.0497995429       -3.2270817795       -0.4348816590
 H        -9.5407425736       -3.4296224810       -1.1503795789
 H       -10.8161148781       -1.3218061120       -1.8243577748
 H        -9.0952425131       -1.0713104318       -1.6121634571
 H        -8.8893469786        3.0100119761       -1.6141744226
 H        -7.7549506769        1.5294389869       -2.0910451614
 H        -6.0307162663        2.7983309152       -0.7818289445
 H        -7.3720189078        4.0241284978       -0.3307067696
 H        -9.9147714356        6.1450712163       -1.4808711226
 H        -9.0460486178        7.4596502159       -2.2858663975
 H        -9.1504901837        7.7669952750        0.6960512139
 H       -10.6635740580        7.9643262187       -0.0958694233
 H       -12.2778557689       11.6158027057       -1.3463914967
 H       -13.3657044632       10.0476229827       -1.1943899112
 H       -11.7688655138        8.8475670285       -2.4562965631
 H       -10.7231543582       10.2773217693       -2.6325880421
 H       -10.7072823638        8.5622676952       -6.2350820154
 H       -11.7632785616       10.1043308507       -6.5244773337
 H       -11.9054914297        8.6453819823       -7.4808629490
 H       -15.1207351229        8.9494336710       -3.0567709271
 H       -13.7277756156        7.8464377449       -3.1478111603
 H       -15.0426704633        8.0359398523       -4.2798522800
 H       -13.9636170644       11.6479015008       -5.2079475671
 H       -15.3006686433       10.3719774784       -5.2931312591
 H       -14.1372727987       10.5795219141       -6.5453491888
 H        -8.9406914713       11.3280048269        1.9675083795
 H        -9.4336015961        9.7678753769        2.3890345588
 H       -10.7509030586       10.9344470735        2.2349343155
 H       -10.1968144188       12.6302774980        0.2257307099
 H        -9.6544541797       11.8563554422       -1.3377945586
 H        -8.5722487339       12.0770786775       -0.2009052552
 H        -5.0352317584        5.1953783557       -0.5696227881
 H        -5.5837370225        6.8284719577       -0.2011089764
 H        -4.5620833649        6.4509983760       -1.4956431414
 H        -5.7448974751        6.4282108690       -3.6896246816
 H        -6.4627436906        7.8986002494       -3.1011790237
 H        -7.4308131991        6.5508105353       -3.9698368845
 H       -12.0027857237        1.6332679877       -1.6653346958
 H       -10.5429552853        0.8838535553       -2.3652989134
 H       -10.7524971357        2.7059296314       -2.1353113786
 H       -10.3807624180        3.1494190477        0.9358693826
 H        -9.5869357564        1.8228213108        1.5981380894
 H       -11.4394735284        1.7533093177        1.3447609612
 H        -7.5020379444       -4.4610677035        1.3822836944
 H        -8.1843369851       -5.5504783998        0.3554105964
 H        -7.9841481431       -5.9690897738        2.0894422156
 H       -10.2126787415       -6.4829783312        1.4663195621
 H       -10.8458389239       -5.6008289445       -0.0178193675
 H       -11.6804536913       -5.3758661941        1.5265444110
 H        -9.5655557399       -2.8140522667        7.4561476779
 H       -11.3160644709       -2.5881852962        6.9760091278
 H       -10.3658770293       -1.3264318727        7.8890839340
 H       -10.6126725695        0.7136166223        6.2730445115
 H        -9.1195334792        0.6371878268        5.4295312513
 H        -9.0179977146        0.3294763973        7.0175283262
 Na       -8.6654815512       -0.2108622278        2.2921809381
