117

 C        -7.3843619914       -2.5876831279        6.1414695576
 C        -8.3212036639       -1.7328294727        5.3209287632
 O        -7.9268352966       -1.3087643373        4.2300234936
 C        -9.6793253098       -1.3378745841        5.8964649360
 C       -10.7410409240       -1.3683942653        4.6487011555
 O       -10.6338039432       -0.4327029722        3.9267258654
 C       -11.7276103051       -2.4706729633        4.3588875037
 C       -11.4497973860       -3.2656156839        3.1147600952
 C       -10.1162225196       -4.1187270408        3.1225040328
 O        -9.5026462050       -4.4705677953        4.1003143407
 C        -9.6123267246       -4.4965797599        1.6592405856
 C        -9.4506849901       -3.0747488938        0.9286054846
 O        -8.6474535586       -2.3073308495        1.4132867479
 C       -10.2760183231       -2.8274432403       -0.4473602008
 C       -10.0947015412       -1.4608004497       -1.0205180231
 C       -10.5362764999       -0.4375090412       -0.0547277642
 O       -10.9591603658       -0.7194949855        1.1010501943
 C       -10.1093060976        1.0692081870       -0.3465818758
 C        -8.5344005761        1.3727693315       -0.5326707150
 O        -7.9008486983        0.7820787772        0.3359851684
 C        -7.9812913890        2.3392298706       -1.6382857657
 C        -7.0605238779        3.4641560451       -0.9768801624
 C        -6.7680595116        4.3850360723       -2.2130193430
 O        -6.3858967645        3.9030738795       -3.2581557850
 C        -6.5816330288        5.8506205368       -1.8869147535
 C        -7.7376561442        6.3695938007       -0.9495542925
 O        -7.6676990999        6.0864721766        0.2457679079
 C        -8.9525256469        7.1289012336       -1.5821716549
 C        -9.5499915900        7.9748291591       -0.5045173254
 C        -9.1521954416        9.5049340250       -0.5941608692
 O        -8.4001931316        9.8583182581       -1.4555653196
 C        -9.9819466341       10.5528579753        0.2069468254
 C       -11.5780108160       10.2720023916        0.0246642869
 O       -12.2187133798        9.8906476771        0.9954919905
 C       -12.2424813205       10.6532377881       -1.2930875326
 C       -11.7116506198        9.8611295998       -2.5335124180
 C       -12.4260005073       10.3120452448       -3.8212964259
 O       -11.8674675601       11.1919420512       -4.4939839461
 C       -13.4966523224        9.4233397856       -4.5711081913
 C       -12.6586743989        8.3994041191       -5.5505645806
 O       -12.9925877206        7.2866073677       -5.6071134981
 C       -11.4594346695        8.9894457885       -6.3025832461
 C       -14.4441545593        8.7655585883       -3.6644227009
 C       -14.2333700970       10.4722665312       -5.5283427660
 C        -9.7462717505       10.5602864836        1.8830077815
 C        -9.6690397594       11.8479948788       -0.3265453721
 C        -5.1508310476        6.0400410581       -1.2236247619
 C        -6.4637942905        6.8888695021       -3.1061243434
 C       -10.9318918403        1.5843153146       -1.6158864289
 C       -10.5969527774        1.9148388719        0.9053338306
 C        -8.2503150812       -5.1761008462        1.7928796337
 C       -10.8329426838       -5.4641838010        1.0462396970
 C       -10.2286744861       -2.1447959581        7.0952375823
 C        -9.5078538392        0.1990014664        6.1757353730
 H        -6.4960434916       -1.9887348011        6.3720710558
 H        -7.2592102530       -3.4129544814        5.4252618468
 H        -7.7876299868       -2.8005891770        7.1302384320
 H       -12.6532948583       -1.9171279980        4.1808937791
 H       -11.7824762399       -3.0822525266        5.2733157071
 H       -11.2965389668       -2.5575222423        2.2558701056
 H       -12.2973067670       -3.9156029777        2.8473225161
 H       -11.2618159090       -3.2319306276       -0.2932616265
 H        -9.8724080079       -3.5740468692       -1.1418639862
 H       -10.5884554551       -1.3088432519       -1.9648957122
 H        -9.0402648034       -1.2652649077       -1.2653338588
 H        -8.9246396914        2.9409696800       -1.9183488698
 H        -7.3566242882        1.7571779591       -2.3330499125
 H        -6.1386904408        2.9454486522       -0.7091466546
 H        -7.5745552761        4.0325762994       -0.1682406209
 H        -9.6720424429        6.3316893176       -1.8815153397
 H        -8.6989070959        7.7356941960       -2.4740104277
 H        -9.5453139215        7.5639715926        0.5019537798
 H       -10.6066127038        8.0961429102       -0.7081805459
 H       -12.2148622865       11.7359367169       -1.4513273159
 H       -13.2828607888       10.2896090734       -1.1996585610
 H       -11.8498825371        8.8354443927       -2.3441020705
 H       -10.6376881230       10.2221861146       -2.7264373139
 H       -10.7355132007        8.2600166502       -6.2403659454
 H       -11.1488240705       10.0200803087       -5.9942324729
 H       -11.7610528369        9.1282088486       -7.2960311191
 H       -15.0366602318        9.3422752850       -2.9267101502
 H       -13.9989139134        7.9062383991       -3.2116561135
 H       -15.3290410611        8.5532326868       -4.1562029229
 H       -13.7696023338       11.4484695692       -5.3896894825
 H       -15.3302364697       10.4057246769       -5.3855126985
 H       -14.0761017900       10.2539188310       -6.5706302950
 H        -8.7756887785       11.1298466344        2.1005149644
 H        -9.5791865463        9.6350352381        2.2408840395
 H       -10.6656246952       10.8843549928        2.3171949072
 H       -10.2701803464       12.5783538273       -0.0026604792
 H        -9.6295168474       11.7227952943       -1.4066170940
 H        -8.6308446239       12.0479762637       -0.2227984578
 H        -4.8494040020        5.1237961377       -0.7306807692
 H        -5.1957362703        6.8215282177       -0.5915828599
 H        -4.3254779365        6.2395774396       -1.9724288100
 H        -5.7939227258        6.4679105255       -3.8108465903
 H        -5.9024772513        7.7087417253       -2.6124832694
 H        -7.3143163798        7.1965117597       -3.5694395376
 H       -12.0342682759        1.8387804475       -1.4350364573
 H       -10.9751370385        0.7704103792       -2.3637654717
 H       -10.5812041713        2.4820804189       -2.1671026073
 H       -10.3656291418        2.9678008709        0.7280604880
 H        -9.9712819873        1.7104992911        1.7493851869
 H       -11.7140199920        1.8141331947        1.0723188517
 H        -7.3961121896       -4.4746412035        1.6399020269
 H        -8.2016797072       -5.7688597699        0.9837057416
 H        -8.2228224317       -5.7675927471        2.6979977387
 H       -10.6645373109       -6.3658651903        1.5988102640
 H       -10.6912974924       -5.5519005376        0.0456243100
 H       -11.8223625536       -4.8777556647        1.1785572395
 H        -9.6506761075       -3.0294984140        7.4143865820
 H       -11.3008650674       -2.3872904308        6.9987478133
 H       -10.1412738953       -1.4248878761        7.8933003211
 H       -10.4813747669        0.6189608813        6.2790465982
 H        -9.0597046010        0.5790855967        5.2234114828
 H        -8.8740478936        0.4958634270        6.8934723351
 Na       -8.7951237306       -0.2581259671        2.3031739990
