117

 C        -6.8595842934       -2.3580164068        5.9770480404
 C        -8.0085661120       -1.5912329732        5.3171939136
 O        -7.7656332429       -1.0776527456        4.2475558635
 C        -9.4155348335       -1.2238518270        6.0537638886
 C       -10.6789769002       -1.3832853009        5.0368085457
 O       -10.6847223708       -0.6332846786        4.0329827234
 C       -11.7594050564       -2.4811434641        5.0648115238
 C       -11.7180062928       -3.2414216964        3.6499891545
 C       -10.2669436101       -3.6450087830        3.4779607087
 O        -9.3699661137       -3.5013393156        4.2941618971
 C        -9.7756217225       -4.3952264610        2.0989641911
 C        -9.5629445157       -3.2123476158        1.0995732840
 O        -8.7315723068       -2.3269408998        1.3118165377
 C       -10.4550385465       -2.9196230991       -0.1766736771
 C       -10.1651205420       -1.6941706964       -0.9521368422
 C       -10.7017507441       -0.5986108209       -0.0795214324
 O       -11.1440849507       -0.6968295537        1.0599218238
 C       -10.6316667967        0.9690970591       -0.6324769876
 C        -9.2132892452        1.4226865923        0.0086281316
 O        -8.8008646393        1.0257475148        1.0933300654
 C        -8.2049859282        2.2516536053       -1.0652378488
 C        -8.1888180972        3.7085016397       -0.9838046766
 C        -7.2311163926        4.3797317131       -2.2296810644
 O        -7.1322459821        3.7391729275       -3.3143355668
 C        -6.2437692968        5.5302934339       -1.9603542120
 C        -7.1940811978        6.6016183583       -1.1442579232
 O        -7.0272616508        6.6256170941        0.0637997105
 C        -7.9852170465        7.6231075717       -1.9041393694
 C        -9.0169022745        8.3017359354       -0.9268368006
 C        -8.9349087857        9.8639345120       -1.0107382186
 O        -8.2876362994       10.3971116878       -1.9207936467
 C        -9.6402459460       10.7471318595        0.0556482238
 C       -11.2239273578       10.3629427952       -0.2149321050
 O       -11.8205724389        9.6466981109        0.4605941206
 C       -11.8027364611       10.6788757600       -1.5669386507
 C       -12.2383224185        9.4692695548       -2.5160502973
 C       -12.2612779362       10.0895871561       -4.0333442705
 O       -11.5214562198       10.9776105380       -4.2925631303
 C       -13.3572947534        9.6675946213       -4.9516473474
 C       -12.9235746600        8.3913748780       -5.8025672950
 O       -13.7328822309        7.7500360028       -6.3856784077
 C       -11.3294043372        8.1013196579       -5.7965258844
 C       -14.6521345883        9.3592918847       -4.2380133763
 C       -13.8230513003       10.6284875485       -6.0586808618
 C        -9.2088931289       10.2865931998        1.5324615354
 C        -9.2316151558       12.2450241112       -0.0571282784
 C        -5.3149582332        4.7532729624       -1.1246719478
 C        -5.4806884429        5.8843472720       -3.2539672071
 C       -10.8869156002        1.1267873058       -2.1920087292
 C       -11.7016331735        1.8466399637        0.1041661552
 C        -8.5970100139       -5.2865792751        2.5280872973
 C       -10.8828437275       -5.4232115804        1.5992654576
 C        -9.7554632933       -2.1635892271        7.3186275964
 C        -9.3971200752        0.1979810334        6.5719703361
 H        -6.4255862797       -3.0034124644        5.2414203720
 H        -7.2770233535       -3.0205475022        6.7846324757
 H        -6.1636205465       -1.5560737420        6.2988827687
 H       -12.6185480176       -1.9610561271        5.2946572784
 H       -11.3795046146       -3.1462555134        5.7843028313
 H       -11.9096294607       -2.5560412061        2.8307676098
 H       -12.3954187590       -4.2017976395        3.7186311056
 H       -11.5474255133       -2.9017136087        0.1386495658
 H       -10.4327820717       -3.8336819846       -0.7828185080
 H       -10.7900440012       -1.6963786999       -1.8659153730
 H        -9.2102985289       -1.4691210794       -1.3864134858
 H        -8.2579034624        1.8777130550       -2.0898941089
 H        -7.2557817618        1.9760521524       -0.5039254281
 H        -7.8564806292        4.1026255422        0.0001635595
 H        -9.2480249571        4.0751132000       -1.1214361142
 H        -8.4799750287        7.2078928291       -2.8490828042
 H        -7.2908689322        8.3706171000       -2.3937991741
 H        -8.9021667601        7.8710588050        0.0511160068
 H        -9.9846343616        7.9316570717       -1.2946697634
 H       -11.1858522917       11.2422831582       -2.2049112550
 H       -12.6274302665       11.3124109989       -1.4295343553
 H       -13.2370777466        9.0027003641       -2.2171050310
 H       -11.3921020932        8.7675943990       -2.4454210348
 H       -10.7499061619        8.5992715692       -6.4953408808
 H       -11.1503216248        7.0091494602       -5.9887818192
 H       -10.9470055492        8.4306156180       -4.8606046944
 H       -15.1940938075       10.1180148252       -3.6702246512
 H       -14.5462116883        8.5976761472       -3.4166879873
 H       -15.3255278647        8.7296597167       -4.7996280828
 H       -13.5811893633       10.2336582781       -7.0727645243
 H       -13.2827133047       11.5381076747       -6.0492211192
 H       -14.8846120017       10.7434204680       -5.9801566318
 H        -8.1627872857       10.6146525367        1.7018565390
 H        -9.4994788139        9.2734979775        1.7347874431
 H        -9.6361489536       11.0209503003        2.1726750258
 H        -9.9533370483       12.8692138687        0.3826893317
 H        -9.3678426665       12.5181948861       -1.1304465862
 H        -8.2746007255       12.3550386940        0.4525332735
 H        -4.2412198773        5.1944095448       -1.1435884062
 H        -5.2014309378        3.7725836437       -1.5465836922
 H        -5.8142878913        4.4182085690       -0.1205427030
 H        -5.2080791064        4.9315766027       -3.7137379324
 H        -4.5322771792        6.4847544748       -3.1418253637
 H        -6.1159042649        6.5106417838       -3.9480608089
 H       -11.9266381192        1.3491543213       -2.3640617601
 H       -10.6953412561        0.2767098381       -2.8766449746
 H       -10.2660680515        1.8625266336       -2.6551308167
 H       -11.4339979350        2.8885287025       -0.0754083422
 H       -11.8244237598        1.5861371114        1.1812523472
 H       -12.6692420199        1.7666120199       -0.2711809238
 H        -7.6343027539       -4.6971525134        2.4678972109
 H        -8.6109777389       -6.2516243193        2.1136645850
 H        -8.7955857747       -5.3582732969        3.6862226754
 H       -11.1865374276       -6.0089749991        2.5040848741
 H       -10.3367094361       -5.9263701521        0.9145209252
 H       -11.7566640551       -4.8150918664        1.2800818122
 H        -9.1984466288       -3.1033265559        7.3943224521
 H       -10.7955246567       -2.4486351308        7.4670005173
 H        -9.5859447678       -1.6761040555        8.2479965969
 H       -10.3650090708        0.6523204373        6.9870599461
 H        -9.0233781050        0.8558885907        5.7788138651
 H        -8.6739730134        0.1935468698        7.3764156392
 Na       -9.1546025221       -0.5980765643        2.4511141635
