117

 C       -12.0422152566        8.7014593888       -3.2567653195
 C       -10.7476357091        9.1585120461       -3.8428005353
 O       -10.4039064905       10.2833841840       -3.8600810802
 C        -9.9295433031        8.1423265757       -4.7941566934
 C        -8.8436326225        7.2756222658       -3.9767678735
 O        -8.8346175938        6.0835034137       -4.1674256233
 C        -7.7941338930        7.9381533402       -3.0445584687
 C        -6.5429196938        7.1501209209       -2.8390324571
 C        -6.7308741133        6.0730550561       -1.7386392363
 O        -7.2885929067        6.2635736973       -0.6759903745
 C        -6.1696679753        4.5451866120       -1.9684699591
 C        -5.3912350152        4.1367660188       -0.6895150032
 O        -4.3229897701        3.5758496933       -0.8746749258
 C        -6.1463289830        4.0770075539        0.7164078454
 C        -5.4296181227        3.0954893446        1.7020203678
 C        -6.5255716616        2.4762806292        2.6708116074
 O        -7.4369955199        1.9617686097        2.0829329205
 C        -6.4717164326        2.4442509737        4.2551631961
 C        -7.2077882581        3.7159730909        4.6255691895
 O        -6.7711886409        4.8084582585        4.2951252419
 C        -8.4085809096        3.6714981062        5.6263670464
 C        -9.6767935753        4.4774269195        5.2200360555
 C       -10.2237663372        3.9090170950        3.9297818248
 O        -9.7278286881        2.8509386672        3.5325191574
 C       -11.2398862230        4.6748480227        2.9708378386
 C       -12.3070947778        3.6287582369        2.3757254903
 O       -11.9798921989        2.5563256154        1.8375743622
 C       -13.8378782458        3.8853206857        2.5782050325
 C       -14.7932701795        3.1445969659        1.5403228635
 C       -14.4086491327        3.3357329028        0.1144380926
 O       -13.6565919694        4.3204297252       -0.1728051172
 C       -14.8597333775        2.2910280958       -1.0686603778
 C       -13.6726164642        1.3577839307       -1.4211533682
 O       -13.5108398318        0.4207230272       -0.6989376473
 C       -12.6913165614        1.7453005482       -2.5504479234
 C       -11.6385313642        0.6278718489       -2.7230882872
 C       -10.5360983302        0.7201326593       -1.6171737229
 O       -10.3003599754        1.7169160944       -0.9592423085
 C        -9.8373237897       -0.6299295426       -1.1700260673
 C       -10.4606399507       -0.8776498977        0.2901429437
 O       -10.3290057804       -0.1670513128        1.2605615571
 C       -11.3225512538       -2.2025463230        0.5641242502
 C       -10.2525661319       -1.8570207759       -2.0414120132
 C        -8.2496532125       -0.4083902254       -1.0569910950
 C       -15.9236948497        1.3875175963       -0.4703804750
 C       -15.3243919685        3.2071697609       -2.1879496591
 C       -11.9188248688        5.8122255444        3.7270400653
 C       -10.2588064528        5.2193321549        1.8541037295
 C        -7.1403759899        1.1603270688        4.7314084229
 C        -5.0128484956        2.4393721917        4.7029631953
 C        -7.4313016043        3.7691303500       -2.0849254374
 C        -5.1891279698        4.2838455703       -3.1496234937
 C       -10.7987335977        7.2369929407       -5.5536875863
 C        -9.1791005783        9.0202628540       -5.8448191325
 H       -12.2109271346        7.6258138457       -3.0669609425
 H       -12.9189372581        8.7815668406       -3.9462464118
 H       -12.2629499985        9.3001714610       -2.3405735683
 H        -8.3155522237        8.1589959706       -2.0193467791
 H        -7.4162523688        8.8684062700       -3.5882760656
 H        -5.7533384126        7.8083046072       -2.5605518355
 H        -6.2195101000        6.7345927471       -3.7621975588
 H        -7.1538019798        3.6875869126        0.5336764785
 H        -6.2227438921        5.0773116146        1.1509295132
 H        -4.5498350269        3.5183575757        2.2790701090
 H        -5.0190777130        2.2307643481        1.2582985634
 H        -7.7633466313        4.0376301847        6.4977068018
 H        -8.8053140090        2.6754068695        5.7590014324
 H        -9.4348532246        5.5463627825        4.9987113781
 H       -10.4298711596        4.6556336046        5.9581883240
 H       -14.1223471444        4.9044764506        2.5519996559
 H       -14.1057959972        3.5372812156        3.6122620605
 H       -15.7366129803        3.6163719734        1.6417078855
 H       -14.8861662027        2.1429367342        1.8713087990
 H       -12.1218364280        2.6376826287       -2.3638367658
 H       -13.2262199324        1.9369298810       -3.4926641642
 H       -11.1907405389        0.8873916062       -3.7976941863
 H       -12.2004579690       -0.3238444055       -2.7524974306
 H       -11.5547407293       -2.2613141321        1.5750735837
 H       -10.7839175111       -3.1352190127        0.4281602562
 H       -12.2990703025       -2.4584374895        0.1754598803
 H        -9.9623837717       -1.6152792662       -3.0529714983
 H       -11.3604537016       -1.9486124883       -2.1735875239
 H        -9.6936041987       -2.7536971942       -1.8378910177
 H        -8.0119517965        0.7025519350       -0.8360257732
 H        -7.7732488686       -0.6668518804       -2.0073337511
 H        -7.8479707868       -0.9740229841       -0.3036549414
 H       -15.5518288674        0.6279553641        0.2138998177
 H       -16.6033276750        0.9769635037       -1.1833320144
 H       -16.6148534008        2.0598045321        0.0843022773
 H       -15.5325425695        2.7145213930       -3.1217735681
 H       -14.4244547699        3.9145409394       -2.5023499487
 H       -16.1813335697        3.8748738073       -2.0091412156
 H       -11.2538917216        6.4326279313        4.3700803041
 H       -12.6814005690        5.4299594679        4.4120001495
 H       -12.4286087674        6.4870518542        3.1007617407
 H        -9.5094708974        5.9192628509        2.2834849453
 H       -10.8009912760        5.7741759235        1.0798247806
 H        -9.5172448476        4.4385758641        1.5010999727
 H        -7.2898957746        1.3361103328        5.8143767488
 H        -6.3233808278        0.4356303581        4.6069024957
 H        -7.9073714205        0.7748986096        4.1958604516
 H        -4.4406755750        1.7304834400        4.0604123292
 H        -4.9506516740        2.1885031023        5.7515654469
 H        -4.6238337226        3.4039488772        4.6029711652
 H        -8.1358872529        4.1880085450       -1.3997408680
 H        -7.3335790109        2.7182097847       -2.0020667654
 H        -7.8940318036        3.8978451069       -3.0864191483
 H        -5.7501895699        4.5068695156       -4.0766645159
 H        -4.9485116264        3.2615421586       -3.0802901693
 H        -4.3557730802        4.9252705495       -3.1223229579
 H       -10.2155323459        6.4902974566       -5.9970917220
 H       -11.4440963721        7.7567828216       -6.2698209441
 H       -11.4625077055        6.6484024465       -4.9492744761
 H        -8.1205681251        9.2099067605       -5.6374186194
 H        -9.6574015561       10.0265828172       -5.9560019724
 H        -9.0887150975        8.5094763852       -6.8043066266
 Na       -9.7342585480        1.9079938487        1.4609736988
