117

 C        -7.0137187154       -1.9984344897        6.0640216073
 C        -8.1242601308       -1.0279929331        5.5645486116
 O        -8.0922297911       -0.6484744025        4.3972805858
 C        -9.3421679763       -0.7623238706        6.5383334171
 C       -10.5324858371       -1.0575158238        5.5463860840
 O       -10.9162577558       -0.1869496054        4.8052499134
 C       -11.0670177594       -2.5014023532        5.4751725353
 C       -11.0057454768       -2.9037042106        3.9598026761
 C        -9.9834514861       -4.1327041746        3.6141294954
 O        -8.9582453095       -4.2657411072        4.2589607307
 C       -10.1024854154       -4.6347635473        2.0304505976
 C        -9.9687839334       -3.3712697974        1.0540455481
 O        -9.2210941143       -2.4884209667        1.3673203788
 C       -10.8121099148       -3.2543250610       -0.1441978599
 C       -10.4741247763       -1.8603376713       -0.8133909757
 C       -10.8063786544       -0.5465948334       -0.0507722504
 O       -11.1884706681       -0.6827839173        1.1342919094
 C       -10.6135210796        0.7803706666       -0.7333827301
 C        -9.3613798838        1.6069002640        0.0302331293
 O        -9.4072648980        1.4255634505        1.2375084041
 C        -8.2198159386        2.2777716778       -0.5250644043
 C        -8.5738198582        3.7739292891       -1.1014509681
 C        -7.7761287041        4.3038442733       -2.2713665781
 O        -8.1649327794        4.3202322222       -3.3977110847
 C        -6.3583217935        4.8888706171       -1.9401790693
 C        -6.6887587049        6.2495480719       -1.0598438418
 O        -6.6718212725        6.1815595223        0.1582334596
 C        -6.9947222319        7.5716627333       -1.6634893824
 C        -7.9363219418        8.4804412115       -0.8417836012
 C        -8.4079673897        9.8432274365       -1.3410930792
 O        -7.8088436454       10.5252712322       -2.1385876537
 C        -9.4249505635       10.5872870961       -0.2760468999
 C       -10.8690941260       10.1425973392       -0.7926127274
 O       -11.5087045730        9.2091278516       -0.1796407967
 C       -11.3940077508       10.7657257719       -2.0266874021
 C       -12.5796078169       10.1396361403       -2.8542469460
 C       -12.4259583513       10.3004691982       -4.2982211698
 O       -11.3919300217       10.9314598458       -4.5938589189
 C       -13.4709864359        9.8379794363       -5.3564544738
 C       -13.1717304602        8.3731577780       -5.8250982393
 O       -14.1264824166        7.6766195162       -6.2036077348
 C       -11.7529886205        7.8309578447       -5.6523811636
 C       -14.7603002333        9.7532314889       -4.5965294559
 C       -13.2755827019       10.8257193743       -6.5676542233
 C        -9.2221961358       10.0823193601        1.1671944259
 C        -9.0605440973       12.1274579516       -0.2616313481
 C        -5.6574657049        3.8345895277       -0.9492788169
 C        -5.4868751627        5.2780001310       -3.1904844626
 C       -10.2405121804        0.6093675361       -2.2518768660
 C       -11.9397745875        1.6425933907       -0.4381914790
 C        -8.7747400092       -5.5853680085        1.8761637700
 C       -11.4203004497       -5.3976676015        1.8612396852
 C        -9.4012040031       -1.6189429096        7.7629485342
 C        -9.2806731345        0.7134075301        6.9220160131
 H        -6.0913756397       -2.0451810115        5.4057808963
 H        -7.4925227634       -2.9735692160        6.0747395238
 H        -6.8486685026       -1.8525871144        7.1577660431
 H       -12.1009286966       -2.5018416887        5.8006865813
 H       -10.5493689641       -3.1886409411        6.0735168318
 H       -10.5292959885       -2.0034742074        3.5629710304
 H       -12.0793886752       -3.1047746516        3.7929447618
 H       -11.9101427240       -3.1952052212        0.1264764423
 H       -10.6192606482       -4.0717846763       -0.8513232063
 H       -10.8098236281       -1.8923085297       -1.8454879774
 H        -9.3661586531       -1.8117411682       -0.8580361695
 H        -7.6737441379        1.7073756394       -1.3010978145
 H        -7.4426500780        2.3564920991        0.1652044884
 H        -8.4108479327        4.4159809538       -0.2588553770
 H        -9.7015126495        3.8690331702       -1.2681539706
 H        -7.2151080593        7.6487414397       -2.7805111643
 H        -6.0334956156        8.1278205637       -1.5097101922
 H        -7.4848090497        8.5576431917        0.1398050446
 H        -8.8873601488        7.9289280038       -0.7197809015
 H       -10.5695345666       10.5863405472       -2.6484073806
 H       -11.4703069412       11.8394171197       -1.9188851722
 H       -13.5009101981       10.5036937195       -2.5562782727
 H       -12.7296780052        9.0480245793       -2.5992293162
 H       -11.4848147073        7.8210680273       -4.5493728864
 H       -11.1253402196        8.4249744182       -6.2142686655
 H       -11.7019459097        6.7905534245       -5.8842978996
 H       -15.2407242644       10.7390143878       -4.3268901993
 H       -14.7159119956        9.1911444785       -3.6681033217
 H       -15.5211093656        9.1082580807       -5.1303433702
 H       -14.1971936508       11.0695550240       -7.0605813979
 H       -12.5549473846       10.3292530503       -7.2686481533
 H       -12.7557587551       11.7337051934       -6.2537519000
 H        -9.1332484400       10.8848197178        1.9008059495
 H        -8.3015044660        9.4518568985        1.4055285215
 H       -10.1539080020        9.5400485079        1.4519900763
 H        -9.7797625635       12.6507724398        0.4256489369
 H        -9.1903641614       12.5679083021       -1.2375659755
 H        -8.0276681304       12.3281631622        0.1077916369
 H        -6.2365483670        2.8697532123       -0.9958106992
 H        -5.7247406090        4.2132113258        0.1944534352
 H        -4.6148565041        3.6393798069       -1.0680060332
 H        -5.0074872447        4.3598831202       -3.7033605768
 H        -4.6688016683        5.9557114907       -2.8723150932
 H        -5.9091083902        5.7562311239       -4.0885591419
 H       -11.0339145013        0.6778249953       -3.0360975645
 H        -9.7607710548       -0.3486180314       -2.3403165290
 H        -9.5439327136        1.4126597731       -2.5641347847
 H       -11.8393649600        2.6797285987       -0.7473983124
 H       -12.1958746091        1.5640927838        0.5772507694
 H       -12.8629575596        1.2348130059       -0.9663622078
 H        -7.9536377429       -5.2650894165        2.5251285146
 H        -8.5893848649       -5.8306283358        0.7169300909
 H        -9.1504529503       -6.4873256744        2.3247822319
 H       -11.6519980491       -5.9779730928        2.7087057490
 H       -11.3266880972       -6.1856660843        0.9506627853
 H       -12.1115705201       -4.5972557240        1.7308733804
 H        -8.9696591433       -2.5835479768        7.7999647778
 H       -10.4064284558       -1.9057037800        7.9711199402
 H        -8.9956865093       -1.1710038164        8.6444311223
 H       -10.1464452546        1.0946387892        7.4727047196
 H        -9.1099405744        1.3265030656        6.0238050395
 H        -8.3622414681        0.7932838211        7.6208405570
 Na       -9.5715606073       -0.1013295898        2.8412193448
