117

 C       -12.0718064949        8.6345745657       -3.3168980752
 C       -10.8474844834        9.0774946423       -4.0749343422
 O       -10.4146307939       10.2553713311       -3.9862058642
 C        -9.9874368213        8.0781339834       -4.9114923309
 C        -8.9915899773        7.2207925707       -4.0167940463
 O        -8.9527538029        6.0038462279       -4.0717380158
 C        -7.8258974996        8.0375487017       -3.2044926408
 C        -6.6230914380        7.1480194118       -2.9430423444
 C        -6.7047227513        6.1162637790       -1.7860722548
 O        -7.2666555972        6.3993659202       -0.7778733807
 C        -6.2866004842        4.5630509168       -1.9390398161
 C        -5.4239058883        4.0187525076       -0.7160466268
 O        -4.2484336169        3.6922001947       -0.8630938422
 C        -6.0462796601        4.0518263122        0.6529910786
 C        -5.3979142074        3.1650954153        1.7249881315
 C        -6.5464360816        2.4879248717        2.6255019803
 O        -7.4666685590        1.9634086324        2.0261444979
 C        -6.4231747477        2.4869017842        4.2528941855
 C        -7.1502538571        3.9149814846        4.7610085973
 O        -6.6552792449        4.8788582560        4.2629118042
 C        -8.3243551700        3.9314031436        5.8116204214
 C        -9.5632398467        4.5683581894        5.1826174365
 C       -10.2066382316        3.9083933769        3.9189739341
 O        -9.7681956459        2.8004327620        3.6817801544
 C       -11.2564676668        4.6488865476        3.0792875326
 C       -12.2951205651        3.6397453152        2.4035469600
 O       -11.8790509606        2.7885571950        1.6952640628
 C       -13.7740593875        4.0203271499        2.5392666907
 C       -14.6929340233        3.1971714746        1.6094468807
 C       -14.1905382051        3.3290452613        0.1483744949
 O       -13.4887713250        4.2537082318       -0.2541396147
 C       -14.8293182294        2.2982224061       -0.8477324815
 C       -13.5962988886        1.2247282834       -1.2835326026
 O       -13.3550497400        0.2713205080       -0.5796004337
 C       -12.6702383728        1.6800402454       -2.4118415782
 C       -11.4859963673        0.6382873693       -2.6036678839
 C       -10.5077666578        0.6305544296       -1.4760287323
 O       -10.2511906944        1.7275637005       -0.9515974557
 C        -9.8183475350       -0.7046818485       -1.0865737092
 C       -10.4475974196       -1.0341418919        0.3461430842
 O       -10.4546924260       -0.1648185242        1.1648902532
 C       -11.4258104136       -2.1130830239        0.4538967712
 C       -10.1173153476       -1.8413374493       -2.0449140448
 C        -8.3049231280       -0.5050889981       -1.0221354010
 C       -16.0406089743        1.4444250791       -0.3486642468
 C       -15.4038562539        3.1078328066       -2.0708677425
 C       -11.9203162243        5.8367436765        3.7004799303
 C       -10.3165721858        5.1808904934        1.8755373261
 C        -7.2084585812        1.2074378481        4.7383473471
 C        -4.9955520479        2.5726231656        4.7624473938
 C        -7.5996370579        3.7172499271       -2.0493371327
 C        -5.3745789238        4.3010982719       -3.2264543674
 C       -10.8858355704        6.9133686731       -5.6327629630
 C        -9.2204953287        8.9804794081       -5.9072329729
 H       -12.2305337755        7.6476251594       -2.8812596013
 H       -12.8988533730        8.5345536296       -3.9493293100
 H       -12.2488352136        9.3990713176       -2.5851692445
 H        -8.2791762797        8.2764955273       -2.2110737025
 H        -7.4461655147        8.9333930135       -3.8195831054
 H        -5.7944807316        7.7518279473       -2.5399307545
 H        -6.2062879682        6.7762430063       -3.9028990440
 H        -7.1394772829        3.6689346176        0.5078570394
 H        -6.0905511868        5.0857063281        0.9881189250
 H        -4.7119449290        3.7162389922        2.3889021747
 H        -4.7367118242        2.3466790524        1.4452384245
 H        -7.8984391193        4.3695642015        6.7545168232
 H        -8.6683201818        2.8890084827        5.8978559889
 H        -9.4140243006        5.6034962444        5.0537339134
 H       -10.3860017626        4.6749220952        5.9560642484
 H       -14.0028580947        5.0488673963        2.4222663768
 H       -14.0118750052        3.8527683294        3.5664327282
 H       -15.7255520257        3.5822038214        1.6785660183
 H       -14.6700070489        2.1652292121        2.0394467450
 H       -12.1553254954        2.6418422481       -2.2604102168
 H       -13.2437997827        1.7690554641       -3.3253038516
 H       -10.9833583080        1.1397833979       -3.4578100667
 H       -11.9282404357       -0.3636938243       -2.9239736077
 H       -11.8383675864       -2.4371297432        1.4285969458
 H       -11.0173982719       -3.0341829698        0.0060579193
 H       -12.3480065985       -1.9940929094       -0.0667296749
 H       -10.0217589883       -1.6097508725       -3.0537184956
 H       -11.2275308416       -2.0395497022       -2.1102989430
 H        -9.4628206161       -2.7076298814       -1.8082848028
 H        -8.1091079798        0.6066241711       -0.8315559405
 H        -8.0162822465       -0.6563501487       -2.0451208016
 H        -7.6619299885       -1.1163786264       -0.3654955626
 H       -15.7015165781        0.6734680613        0.4732101226
 H       -16.5319342374        0.9236858423       -1.1726336111
 H       -16.8944314346        2.0161393313        0.0425551379
 H       -15.8957298799        2.4895276662       -2.8803409968
 H       -14.6668776178        3.6814066244       -2.6063657267
 H       -16.1581333522        3.8987819735       -1.7884936924
 H       -11.2936085731        6.4572821171        4.3731945528
 H       -12.8008420759        5.6510646775        4.3358857214
 H       -12.3433004237        6.4937619048        2.8406288363
 H        -9.6226825711        5.9038573538        2.2308627493
 H       -10.8703588880        5.6227858610        1.0322388999
 H        -9.5860213532        4.4410355210        1.6690743607
 H        -7.2505893140        1.3611099091        5.7381188510
 H        -6.7253095478        0.2978988790        4.4313276073
 H        -8.1856584618        1.0874016549        4.2077271533
 H        -4.2345668114        2.2309986529        4.0852600151
 H        -4.9842220120        2.1278517209        5.7375529431
 H        -4.8367074454        3.5712903486        4.9741775641
 H        -8.0921859947        3.7369641409       -1.1208400762
 H        -7.2814194944        2.7061653556       -2.3640734364
 H        -8.3514657110        3.9998835288       -2.7359675332
 H        -5.9882873470        4.2711271041       -4.1297274509
 H        -4.9641356891        3.2720959677       -3.0541111147
 H        -4.5878602920        5.0471617210       -3.3397195162
 H       -10.4578286617        6.2815797889       -6.3783075591
 H       -11.7751766996        7.4412101339       -6.0444346915
 H       -11.2953490637        6.2003562395       -4.9541284419
 H        -8.1637385855        9.2280430423       -5.8051072279
 H        -9.7402258675        9.9379719666       -6.0569565427
 H        -9.2077959341        8.4092129310       -6.8368729148
 Na       -9.7476622099        1.8491199620        1.3594325638
