117

 C        -6.6512362307       -1.0043094488        6.1739724699
 C        -8.0105231384       -0.7157524789        5.5769315172
 O        -8.1533147820       -0.6081685223        4.3691269832
 C        -9.2030433150       -0.3996823262        6.6211789539
 C       -10.3915439425       -1.2885638888        5.9282629998
 O       -11.0726222874       -0.7799267091        5.1012277652
 C       -10.5421681313       -2.8543687712        6.0537900857
 C       -11.1010942529       -3.4503758199        4.7642180080
 C       -10.0942731122       -4.3338797867        3.8803754171
 O        -9.1595851793       -4.8326681476        4.4637902706
 C       -10.4181115793       -4.5012726810        2.3130485673
 C       -10.2951119938       -3.1470145669        1.6756292293
 O        -9.6905058864       -2.1858320318        2.1408848023
 C       -10.8990547740       -3.0513714325        0.2603916261
 C       -10.3457696178       -1.7156727912       -0.5362728094
 C       -11.1312896383       -0.4665906528       -0.0120106933
 O       -11.7622242183       -0.3958853341        1.0269791546
 C       -10.7530278559        0.7928351091       -0.8442530363
 C        -9.4723525716        1.4917239142        0.1828988031
 O        -9.5570560988        1.5118380900        1.3651750880
 C        -8.3304723274        2.1942578883       -0.4886530802
 C        -8.8095539730        3.5493248692       -0.9742484985
 C        -8.0609678409        4.3756882926       -2.1553197022
 O        -8.6800499440        4.7369766085       -3.0726024504
 C        -6.5668783476        4.7421975930       -1.9011108988
 C        -6.4962425089        5.8307496853       -0.8604035134
 O        -6.2090988000        5.5106851855        0.2678534419
 C        -6.9063630952        7.2155263427       -1.2975423826
 C        -7.7954272044        8.0270399411       -0.4121559740
 C        -7.7983134784        9.4306162069       -0.9890874723
 O        -6.9083944465        9.8058237391       -1.7690294117
 C        -9.1586883141       10.3627494918       -0.6783270080
 C       -10.0934097562        9.9174984825       -1.7672141127
 O       -10.4900928434        8.8110400250       -1.9747855885
 C       -10.6430948129       11.1181782541       -2.7110785944
 C       -11.9814233837       10.6563058908       -3.3122054063
 C       -12.1469440365       10.5445797165       -4.8494128194
 O       -11.1584115619       10.8462500654       -5.5217557809
 C       -13.4897222062        9.9846478823       -5.5734972021
 C       -13.4513115370        8.4652264769       -5.4474186332
 O       -14.3585313998        7.8193625663       -5.0174577526
 C       -12.1656455152        7.6158524354       -5.9538432140
 C       -14.7758883767       10.4490774925       -4.9096106260
 C       -13.4648208860       10.5583106712       -6.9827572883
 C        -9.8826855110       10.2687164780        0.7522317435
 C        -8.8240063123       11.8406728528       -0.7408238128
 C        -5.6540044323        3.5155688357       -1.6921785847
 C        -5.9444016408        5.5011921021       -3.0587407374
 C       -10.1427522752        0.4991464059       -2.2558731168
 C       -11.8730405929        1.9139471324       -0.9477384996
 C        -9.1740416259       -5.2696806935        1.7799710837
 C       -11.6890970034       -5.1974956186        2.0134460007
 C        -8.8730819018       -0.7723330605        8.0248129155
 C        -9.4365937655        1.1686635809        6.4718903121
 H        -5.9961451477       -0.5586009397        5.4254397909
 H        -6.3820972754       -2.0789424893        6.2755256850
 H        -6.5912619898       -0.6229448956        7.1798226712
 H       -11.0953526242       -3.1761919678        6.9511462904
 H        -9.5950496313       -3.4117290589        6.3233070099
 H       -11.3320087602       -2.6154877707        4.1719083930
 H       -11.9398908049       -4.0235844366        5.1447697356
 H       -11.9899774880       -3.0303052050        0.3165253209
 H       -10.4865553714       -3.9141203677       -0.2677115930
 H       -10.4216901855       -1.7754602661       -1.6576648336
 H        -9.3124155528       -1.7308618824       -0.2502944215
 H        -7.9095624314        1.4803100710       -1.1790189613
 H        -7.3855803090        2.2302341796        0.1076898032
 H        -9.1296744624        4.1654355109       -0.1563226572
 H        -9.7308452340        3.2091838052       -1.4123158428
 H        -7.5183757071        7.0859810684       -2.1709071880
 H        -6.0934422866        7.8090047584       -1.6330347197
 H        -7.1872573187        8.0863289315        0.5252793804
 H        -8.8616039492        7.7105142155       -0.2083536361
 H        -9.9202192146       11.3333158546       -3.5234054784
 H       -10.7692606168       12.0587731251       -2.2101925062
 H       -12.7955528892       10.7969770898       -2.6244588196
 H       -11.9071204780        9.6160460616       -3.1992976258
 H       -12.6374935032        6.6676603548       -6.2642054009
 H       -11.5137766430        7.3168366388       -5.0878505193
 H       -11.5287791447        8.1461639664       -6.7111554164
 H       -14.8602917995       11.5527744175       -4.9077386328
 H       -14.8205615831       10.0536186577       -3.9283870847
 H       -15.5596708739       10.2845533887       -5.5260367804
 H       -13.5821635876        9.6882973554       -7.6851398325
 H       -12.5938058848       11.1438984838       -7.1870209503
 H       -14.3149073475       11.2117064410       -7.0891452526
 H       -10.1181426821        9.2674799508        1.2988874875
 H       -10.8900762510       10.5581491067        0.6327163021
 H        -9.3354230151       10.9391954103        1.4039102903
 H        -9.6014358680       12.3849233942       -0.2110699771
 H        -8.4758594078       12.2965943016       -1.7211494120
 H        -7.8593370298       12.0049264654       -0.1277466526
 H        -5.6020095369        2.8918377372       -2.5319312956
 H        -6.0304261943        2.9485190542       -0.8542610663
 H        -4.5585280364        3.7075117520       -1.6626479351
 H        -5.6817858844        4.7700869127       -3.8850132091
 H        -4.9003424737        5.9564936455       -2.8911316334
 H        -6.5998932988        6.2062598218       -3.4956654966
 H       -10.0119280033        1.4746391086       -2.7036419621
 H       -10.8765614250       -0.0229232417       -2.7968264495
 H        -9.3184557650       -0.1195117742       -2.1555152955
 H       -11.6383930247        2.8189073234       -1.5073720402
 H       -12.1648964090        2.2603905677        0.0529253897
 H       -12.7140184323        1.4768543104       -1.4105982383
 H        -8.3479344156       -4.5480915928        1.5435625007
 H        -9.5425836322       -5.5849309863        0.7922357645
 H        -8.8864669910       -6.0712167091        2.3845263214
 H       -11.6235815535       -6.1147216258        2.4801637775
 H       -11.9115345687       -5.3051766886        0.8846453414
 H       -12.5718218873       -4.5939342263        2.3527331000
 H        -8.3970244882       -1.7412193828        8.1785984120
 H        -9.7500530418       -0.7585302556        8.6741437494
 H        -8.3422403454       -0.0338417419        8.5687893777
 H       -10.1876163740        1.4226472757        7.2410104577
 H        -9.8050922137        1.3837253578        5.3722678747
 H        -8.5512234371        1.7576574756        6.6265521602
 Na      -10.1653790447       -0.2409750624        3.0790816459
