117

 C        -6.7286891965       -0.1841005601        5.8487337295
 C        -8.0878376186       -0.2180902687        5.1573334571
 O        -8.1414826987       -0.0114651023        3.9896764275
 C        -9.2301650718       -0.3732238388        6.1836105393
 C       -10.3973756343       -1.4060991884        5.4584478164
 O       -11.1527819831       -1.0819878466        4.6104170554
 C       -10.5821153945       -2.7965710604        6.2267828718
 C       -10.9444066046       -4.0896121893        5.5166941099
 C        -9.9438585385       -4.6079696436        4.3296999705
 O        -8.8545822559       -4.9339580953        4.7294359502
 C       -10.4607690264       -4.7534872507        2.8848342400
 C       -10.5295723900       -3.2320736311        2.2166045335
 O        -9.8931579156       -2.3387601689        2.7666350627
 C       -11.3452629220       -2.9122890100        0.9264154587
 C       -10.4864203312       -1.7714806876        0.1048248631
 C       -11.1973057981       -0.3605457862        0.2543365005
 O       -12.1867893223       -0.2688072382        0.9873460845
 C       -10.7162268441        0.9483847087       -0.6039061142
 C        -9.4599499920        1.5991742270        0.0684870513
 O        -9.1539864706        1.1860433247        1.1967400374
 C        -8.5589396784        2.5418319034       -0.6807803015
 C        -8.8989010558        3.9448649745       -0.8987115262
 C        -8.1560645256        4.3325495142       -2.0838668830
 O        -8.7059954514        4.1555900274       -3.1421168463
 C        -6.5423922447        4.6418567498       -2.0238606441
 C        -6.5022139099        5.7621153049       -0.9244376099
 O        -6.2902983059        5.4921403575        0.2787046717
 C        -6.7305246210        7.1902724811       -1.3660998029
 C        -7.5511113352        7.8032154687       -0.3169294655
 C        -7.5419904333        9.4426202935       -0.6355775896
 O        -6.5050811759       10.0104969836       -0.9574218027
 C        -8.9028571891       10.2947480973       -0.8833190308
 C        -9.6617814413        9.8110903511       -2.3496950344
 O        -9.6865161436        8.6434238357       -2.6177791895
 C       -10.2313909706       10.7931771609       -3.4162242675
 C       -11.7041329719       10.4937425645       -3.7005823487
 C       -12.0314744694       10.5662309655       -5.1817611172
 O       -11.2154652544       10.8690307950       -6.0558584956
 C       -13.5117034152       10.0568647840       -5.7383346039
 C       -13.4705410668        8.6116019923       -5.3103499981
 O       -13.8802691059        8.2754354625       -4.2017638345
 C       -12.7663843254        7.4835398154       -6.0551665263
 C       -14.8195637905       10.8112924782       -5.0912630581
 C       -13.4578245652       10.4507003112       -7.2269915585
 C        -9.9298779402       10.1998639977        0.2060700395
 C        -8.6218521032       11.8606447862       -0.8669377795
 C        -5.5840966638        3.3973030363       -1.6091087684
 C        -6.1331571533        5.1274667458       -3.3427873419
 C       -10.5391171707        0.7158585821       -2.1864640906
 C       -11.9159111057        2.0251087334       -0.4961580338
 C        -9.6134131768       -5.6523781158        1.9816380097
 C       -11.9766622914       -5.2432815703        2.8284712293
 C        -8.9305405925       -0.9147084018        7.5779279259
 C        -9.7941596626        1.0858745014        6.3177441269
 H        -5.9492260375       -0.8720121049        5.3954109271
 H        -6.8625865699       -0.2665397416        6.9293583479
 H        -6.3407031119        0.8310380417        5.6483434341
 H       -11.2521573630       -2.7234432655        7.0463937623
 H        -9.6795329605       -2.9461806430        6.8117533918
 H       -11.8774727963       -3.7944166793        5.1210433680
 H       -11.1129757892       -5.0228909069        6.0933701228
 H       -12.3260233182       -2.4049000209        1.0836659496
 H       -11.4601887207       -3.8062014225        0.3047771445
 H       -10.2161832132       -2.1548217124       -0.9108671036
 H        -9.5737380205       -1.6354864936        0.6524799372
 H        -8.3025989461        2.1091261872       -1.6939715114
 H        -7.6000683914        2.5220686778       -0.0695492338
 H        -8.6614391470        4.4976246227       -0.0613970367
 H        -9.9477310649        4.2583619854       -1.1467788528
 H        -7.4512156512        7.2264199245       -2.2209725392
 H        -5.8726084099        7.7601999410       -1.6977233049
 H        -7.2812528284        7.7237057263        0.7376712785
 H        -8.6293228150        7.4648508482       -0.3752086928
 H        -9.5930283387       10.9836553086       -4.2590108860
 H       -10.2030617193       11.7004263484       -2.8845524000
 H       -12.3477985009       11.1558384514       -3.1562838398
 H       -11.9500014426        9.5369888332       -3.3384468439
 H       -12.9532055008        7.5914462459       -7.1666310122
 H       -13.2736946841        6.6054396958       -5.8552710940
 H       -11.7262201533        7.5283572497       -5.8197167015
 H       -14.4327886686       11.7946087333       -4.6215234621
 H       -15.3110817966       10.2414298590       -4.3168115064
 H       -15.6006917772       10.9990408395       -5.8577480895
 H       -14.4915153639       10.5785771558       -7.6438771746
 H       -12.9855228829        9.6861311982       -7.8240147756
 H       -13.0249690433       11.4174925236       -7.2697306519
 H       -10.6147197355        9.4144194146       -0.0494447422
 H       -10.4843841968       11.1379451400        0.4604237683
 H        -9.5390536436        9.9113789135        1.2296544890
 H        -9.5506328712       12.4779339096       -0.8564290634
 H        -8.1310321821       12.2194380098       -1.7388831061
 H        -8.0853788718       12.0736638076        0.0735914125
 H        -5.5848520030        2.5816314229       -2.3756245007
 H        -6.0017322659        2.9203585607       -0.5888770266
 H        -4.5578533971        3.6120852788       -1.4314299802
 H        -4.9990318193        5.2093300025       -3.3896006932
 H        -6.6506756982        6.0687582192       -3.6266312441
 H        -6.4211468040        4.3788817837       -4.1286262748
 H        -9.9537394088        1.6131251369       -2.3491030982
 H       -11.4805197012        0.8024116843       -2.6822072030
 H       -10.1021733921       -0.2524266790       -2.3107185661
 H       -11.5300882235        2.9577595473       -0.9418828396
 H       -12.1669050188        2.3155146421        0.5148345390
 H       -12.8664312634        1.7554606255       -1.0094504527
 H        -9.0583761964       -6.3201771326        2.6586853421
 H        -8.7334371411       -5.0251510112        1.4640713947
 H       -10.2054595296       -6.2460768885        1.3025733517
 H       -12.0049241178       -6.1648826250        3.3637453183
 H       -12.2562364638       -5.4711407100        1.7253275061
 H       -12.7714673744       -4.7564064987        3.2971088336
 H        -8.2665818341       -1.7772931234        7.5791033839
 H        -9.8914536723       -1.0968552481        8.0727402329
 H        -8.4568288999       -0.2518478967        8.2614141789
 H       -10.8806218517        1.0167308277        6.4130282740
 H        -9.6096454401        1.5354674600        5.3273091502
 H        -9.1782106836        1.6797836450        7.1257091504
 Na      -10.2172501664        0.1046218851        2.9064086248
