117

 C        -6.8775811215        0.2036194878        5.3608363785
 C        -8.4068237077        0.1543481858        5.1641548191
 O        -8.8571124206        0.5525290388        4.1124186137
 C        -9.5350162529       -0.1469327496        6.3733464915
 C       -10.2213336726       -1.4926064867        5.9070404033
 O       -11.0825238098       -1.4931104619        4.9607075387
 C        -9.9746884694       -2.8305991207        6.5696368163
 C       -10.7487215227       -3.9966274182        5.9094240449
 C       -10.1488271940       -4.5306817716        4.5888306441
 O        -8.9979859181       -4.8640295153        4.7433051385
 C       -10.7456921431       -4.6392998351        3.0051135135
 C       -10.5278845671       -3.2426127969        2.2820101233
 O        -9.5918212347       -2.4915996169        2.5565289455
 C       -11.5481829025       -2.7981909974        1.2642001458
 C       -11.0826777806       -1.7736478203        0.2371511132
 C       -11.4788122028       -0.3655755803        0.6007528997
 O       -12.0789950682       -0.1614446822        1.6227848662
 C       -11.1355018782        0.9095995091       -0.2963858722
 C        -9.6059199837        1.3448095260        0.1363141752
 O        -9.3605088073        1.3288469556        1.3065796038
 C        -8.5342385165        1.6681246121       -1.0683410864
 C        -8.4204250873        3.2589651161       -1.0583488376
 C        -7.7660850216        3.7173476145       -2.4225453377
 O        -8.2955975557        3.7204013102       -3.4988099122
 C        -6.4064949610        4.6110707394       -2.3764077987
 C        -6.5863138564        5.7149754554       -1.2892951949
 O        -6.9877090318        5.4497465298       -0.2048091248
 C        -6.4486094760        7.3695888117       -1.5738178633
 C        -7.2130915321        8.1420832596       -0.4845297961
 C        -7.5223833446        9.7008930375       -0.7342054235
 O        -6.6588028850       10.4522582249       -0.4212941384
 C        -8.8543568815       10.4662461000       -1.2018499530
 C        -9.0798836996        9.9368277520       -2.7337176082
 O        -8.8255601853        8.7529495797       -2.8560193331
 C        -9.7301015258       10.6931132619       -3.9206695729
 C       -11.1219378525       10.0730574039       -3.9988187891
 C       -11.6332365871       10.4668072402       -5.4461577871
 O       -11.0790714518       11.0843991671       -6.2946908876
 C       -13.1292912163       10.0647766912       -5.7266273437
 C       -13.5029512488        8.6839242437       -5.1707110268
 O       -13.4812487166        8.5588472328       -3.9421547079
 C       -14.0186033698        7.4184279950       -6.0082602461
 C       -14.0194779630       11.0538862125       -4.8894719768
 C       -13.3216552643       10.2551729895       -7.2911426603
 C       -10.1073567150       10.2175567289       -0.3485608183
 C        -8.4059419897       11.9605901097       -1.3760210556
 C        -5.2405092243        3.6727070679       -1.8436685113
 C        -6.0873818767        4.9275097784       -3.8227166357
 C       -11.3969461477        0.3600075351       -1.8503390176
 C       -12.0510324218        1.9923132719        0.1784526907
 C        -9.9949668668       -5.8153890334        2.4649960960
 C       -12.2132055844       -5.0190385157        2.9890653574
 C        -8.7352530927       -0.1858029682        7.7479298592
 C       -10.4980085176        1.0800969797        6.3810650829
 H        -6.6410101815       -0.4815495088        6.1719924420
 H        -6.4829637028        1.1792729459        5.6586480686
 H        -6.5529806819       -0.3540848295        4.4406190190
 H       -10.1944815537       -2.9881900974        7.6004282983
 H        -8.8955055057       -3.0468429200        6.6148402045
 H       -11.7719800985       -3.6982530167        5.9494802357
 H       -10.8367844167       -4.7474673229        6.6065797213
 H       -12.2421997429       -2.0856990613        1.8356999232
 H       -12.2247096886       -3.5408218970        0.9328119369
 H       -11.5599580980       -1.9792820868       -0.7176823896
 H        -9.9802878807       -1.7841790378        0.0161249886
 H        -8.9282359719        1.3755149828       -2.0575334237
 H        -7.6634758543        1.2066983052       -0.6007994036
 H        -7.7898644247        3.5194620939       -0.1943045631
 H        -9.3598662748        3.7469196705       -1.0084422613
 H        -6.9897085865        7.5759134343       -2.5071826947
 H        -5.4320828476        7.6173633137       -1.7806339744
 H        -6.6729097068        8.0724513809        0.4978259134
 H        -8.1761651068        7.6233092660       -0.1698548295
 H        -9.1387045668       10.4994391409       -4.7871473069
 H        -9.9325070802       11.7535240666       -3.9271561990
 H       -11.6305651498       10.6265012079       -3.3138606660
 H       -11.3206335842        9.0345996605       -3.8419517690
 H       -13.8757911819        7.6441436975       -7.0066107764
 H       -15.0367010327        7.0251697573       -5.7974411826
 H       -13.2190229999        6.7378302828       -5.7731260369
 H       -14.1245446058       11.8284430368       -5.5960922071
 H       -13.4510521702       11.4953516045       -4.0366815117
 H       -14.9416794506       10.4847260076       -4.5311674689
 H       -14.2218967040        9.8294017197       -7.6483093865
 H       -12.5388353414        9.5961598310       -7.7534566045
 H       -13.2540379047       11.3036606800       -7.6746801852
 H       -10.3455020174        9.0784222552       -0.0487850858
 H       -10.8976530966       10.7230940171       -0.9491555337
 H       -10.0106727332       10.6594063051        0.6163106570
 H        -9.1959030196       12.5735956679       -1.7636740168
 H        -7.6266251107       12.0062990754       -2.1904743082
 H        -7.9445714783       12.3242465853       -0.4899563733
 H        -5.3577767448        2.5915307200       -1.9204340715
 H        -5.1398188726        3.7799234050       -0.8279211441
 H        -4.3091715130        4.2130181803       -2.1065735284
 H        -7.0136140421        5.1476369615       -4.3899141080
 H        -5.6004065304        4.0166771192       -4.2976158916
 H        -5.5466153245        5.8795222128       -3.7879322934
 H       -11.3818597780        1.2170780321       -2.5058379247
 H       -12.3756102619       -0.1211352309       -1.8487921535
 H       -10.4893342731       -0.1883871435       -1.9374707811
 H       -11.8002813541        2.9597035298       -0.2583002818
 H       -11.9686822212        2.0591738429        1.2688011547
 H       -13.1455249332        1.8267530246        0.0394456952
 H       -10.4816281892       -6.8401121518        2.5349679106
 H        -9.0194610316       -5.8612963796        2.8463312803
 H        -9.9062954411       -5.6272305067        1.3139515718
 H       -12.6096332116       -5.8066539115        3.6768232396
 H       -12.4843567779       -5.5295751339        2.1462170371
 H       -12.8687198883       -4.1096242662        3.1588356892
 H        -7.7707322872       -0.6093453826        7.6224053932
 H        -9.1133286479       -0.5643311804        8.6743216920
 H        -8.4514656728        0.8777611700        7.8148862273
 H       -10.9272659285        1.2747500561        7.4441159555
 H       -11.3964134031        0.8871481116        5.6814338182
 H        -9.8962376763        1.9272025572        6.1574950663
 Na      -10.4522711421       -0.3683435857        3.0899210493
