117

 C        -6.9183540882        0.1675882762        5.3379849722
 C        -8.4967795303        0.2214414418        5.3314676618
 O        -8.9569314458        0.7067989426        4.3242951841
 C        -9.4418603623       -0.0405020876        6.4559215571
 C       -10.2740672723       -1.3854567862        6.0240174284
 O       -11.1197254717       -1.3630158722        5.1786251759
 C       -10.0207813302       -2.7439365813        6.7324915956
 C       -10.6478199497       -4.0203090053        5.8977887735
 C        -9.8740323859       -4.4329255905        4.6189708005
 O        -8.8131962051       -5.0479903664        4.5479140774
 C       -10.7407516140       -4.6032797715        3.2135142130
 C       -10.5289831489       -3.1933099678        2.3083871100
 O        -9.5320880528       -2.5577913341        2.4460104928
 C       -11.6441915394       -2.8657262873        1.3434455423
 C       -11.2380502212       -1.8645467416        0.2021500734
 C       -11.4928675034       -0.3672572028        0.5683826021
 O       -12.0089408623       -0.1566173880        1.6216679620
 C       -11.1431487665        0.8382569856       -0.2745099896
 C        -9.6875227441        1.2292640607       -0.0330612691
 O        -9.3151408208        1.2591523801        1.1134296902
 C        -8.7676502789        1.6400416811       -1.2075473046
 C        -8.3390705380        3.2274615009       -0.9576834332
 C        -7.6579878151        3.7464611179       -2.4274661282
 O        -8.2935970399        3.2974980584       -3.3478770041
 C        -6.3247709915        4.7001528383       -2.3896729540
 C        -6.6951660857        5.8281339144       -1.3120096026
 O        -7.1261970041        5.3274424483       -0.2837711008
 C        -6.7779540337        7.3046875692       -1.6726428465
 C        -7.4338465388        8.2636441280       -0.5870032410
 C        -7.4429873210        9.7974905719       -0.7759090089
 O        -6.4895147255       10.5123612872       -0.3580017686
 C        -8.7336579138       10.5699992514       -1.3514187660
 C        -8.9454792906        9.7967438577       -2.8169822514
 O        -8.5550030287        8.6663839301       -2.8783398432
 C        -9.5083006214       10.6167538744       -3.8701656475
 C       -10.8928023392        9.9710402198       -4.2240382872
 C       -11.6660167957       10.4349466255       -5.4711689990
 O       -10.9150859765       10.9913886781       -6.3098214423
 C       -13.2029511346       10.0494032838       -5.8277000324
 C       -13.5104235205        8.7276652273       -5.1356577934
 O       -13.4177551401        8.6615621939       -3.9501625587
 C       -14.1363472355        7.5349419947       -5.8941211320
 C       -14.2347837652       11.0234434031       -4.9279505085
 C       -13.3779059456       10.2808443865       -7.3175723281
 C        -9.9705688727       10.1649955923       -0.5394438350
 C        -8.3141393800       12.0114314377       -1.4149748032
 C        -5.2081428975        3.6313547926       -1.8125739629
 C        -5.9741981860        5.1098422704       -3.8645503328
 C       -11.5615534820        0.4697422261       -1.7533242740
 C       -12.1297078769        2.0470207240        0.1764002000
 C       -10.1227482629       -5.8311549325        2.5123182772
 C       -12.3327616211       -4.9666573036        3.3322325982
 C        -8.9088174540       -0.3075495496        7.8565130360
 C       -10.4120152561        1.1153893660        6.3638846294
 H        -6.5043045764       -0.2084835012        6.2696238878
 H        -6.5809200769        1.2442179132        5.3401643624
 H        -6.6933030807       -0.4946568285        4.5056961594
 H       -10.4510110447       -2.9818213946        7.7642754804
 H        -8.9389797224       -2.8749469878        6.9863985761
 H       -11.7296402837       -3.8144211324        5.8457154000
 H       -10.7290941395       -4.8472325607        6.5269794772
 H       -12.5251826994       -2.3675137353        1.7005057678
 H       -12.0366123553       -3.8673320856        1.0238206186
 H       -11.8373049701       -2.0870010153       -0.6822339412
 H       -10.1616662721       -1.8313977745       -0.1454050175
 H        -9.2559847888        1.5836340592       -2.1352672400
 H        -7.8973938952        0.9997326957       -0.9461502345
 H        -7.5791200594        3.1287535474       -0.0948105877
 H        -9.1802405738        3.8310277861       -0.7428166729
 H        -7.1352970971        7.3277795260       -2.6230434123
 H        -5.7076184538        7.5158157428       -1.8259024870
 H        -6.8258186696        7.9663777213        0.3412753919
 H        -8.4446297265        7.9505257872       -0.2139304432
 H        -8.8686218373       10.4624495682       -4.7058908533
 H        -9.4890279044       11.7030480229       -3.6589666043
 H       -11.4777187295        9.9249600500       -3.2567444480
 H       -10.7261140130        9.0054724944       -4.5891270240
 H       -13.9794339866        7.6931835614       -6.9739796083
 H       -15.2093424363        7.6691519263       -5.6124853782
 H       -13.7200329956        6.5556390864       -5.5476965999
 H       -14.2921570455       12.0305422290       -5.4092525497
 H       -13.7457247730       11.0588080127       -3.9484894362
 H       -15.1035761043       10.4957100075       -4.8806128444
 H       -14.3982067834       10.5673163591       -7.5980166218
 H       -13.0888838743        9.4537746097       -7.9495188261
 H       -12.7078427062       11.1705091742       -7.5375780687
 H        -9.8019815245        9.0738460523       -0.2359299439
 H       -10.9021589278       10.2925444318       -1.1115649267
 H       -10.0070896704       10.6181001337        0.4903799188
 H        -9.0960964922       12.6572461557       -1.8281574228
 H        -7.3786057581       12.1427788550       -2.1025661290
 H        -7.9561057423       12.3343250967       -0.3759365391
 H        -5.1991380484        2.7823546691       -2.3309290719
 H        -5.2559510639        3.2769330031       -0.7358081125
 H        -4.3299666374        4.2111947182       -1.8104651495
 H        -6.9514548191        4.8708609166       -4.4312013199
 H        -5.1631056718        4.4756694523       -4.3800150021
 H        -5.9293796754        6.1431848090       -3.8753300586
 H       -10.9618525562        1.1886786088       -2.2504406645
 H       -12.5397787040        0.7025222775       -1.8819389886
 H       -11.1373533774       -0.4368741629       -1.9888108025
 H       -11.6263939895        2.9831568840       -0.0937748536
 H       -12.1791665233        2.0278061134        1.3098598927
 H       -13.1177712781        2.0888585548       -0.1324881051
 H       -10.4505727826       -6.7219194817        3.0785854786
 H        -8.9978394490       -5.8561602224        2.4741551906
 H       -10.4740471520       -5.9794158340        1.5719203098
 H       -12.5483802423       -5.7975878904        3.8396438259
 H       -12.6984650897       -5.5198886068        2.3843591340
 H       -13.0867938086       -4.2011380842        3.6815683695
 H        -8.0368306490       -0.9367030425        7.7995516173
 H        -9.6187592364       -0.8213297710        8.4864890680
 H        -8.6171728699        0.6264717284        8.3355907580
 H       -11.0921471395        1.0265742143        7.1945397610
 H       -11.0350739911        1.0898466999        5.3757020319
 H        -9.8325684018        2.0067472570        6.5710337237
 Na      -10.5086793851       -0.2107638373        2.9346821776
