117

 C        -7.0565204710        0.0108554478        6.0740256891
 C        -8.5013967744        0.4915371787        5.7548275054
 O        -8.7086654668        1.1059803858        4.7254940316
 C        -9.5047300607        0.0352981140        6.7460007686
 C       -10.0030198994       -1.2972699572        6.0618224187
 O       -10.7173326775       -1.1261276874        5.1148132726
 C        -9.5227258309       -2.6382008868        6.4204510491
 C       -10.3275061240       -3.7613961735        5.9681949948
 C        -9.9626301060       -4.1304973956        4.4803224130
 O        -8.7721673403       -4.2834326812        4.2814371938
 C       -10.9699245146       -4.2914133915        3.3512290712
 C       -10.8256937613       -3.0517185295        2.4730377254
 O       -10.0506115310       -2.1555964854        2.7032333827
 C       -11.8301389148       -2.8809757891        1.3810850395
 C       -11.4840042343       -1.8617991148        0.2638841383
 C       -11.9476692117       -0.4570650579        0.6535576321
 O       -12.5241054359       -0.3319676317        1.7673101699
 C       -11.6458056287        0.5986032046       -0.3397808281
 C        -9.9075220945        0.8937502330       -0.3800143501
 O        -9.2603923627        0.4539729569        0.5592796659
 C        -9.3287217735        1.6188954449       -1.4947376861
 C        -8.0177702019        2.4392612379       -1.0117444073
 C        -7.4456230321        3.1773126269       -2.1861814051
 O        -7.6764623656        2.8074281254       -3.3168722642
 C        -6.3915479862        4.5935959439       -2.0308048660
 C        -6.9147555884        5.6747071936       -1.0845810912
 O        -7.4913454282        5.2444235282       -0.0595167820
 C        -6.4985782323        7.1046998236       -1.2255490160
 C        -7.5036902976        8.1396662775       -0.6814441446
 C        -7.2248725555        9.5286019772       -1.0298438231
 O        -6.1670219023       10.1384372119       -0.7983082142
 C        -8.3412582407       10.3280703627       -1.7685194052
 C        -8.7956305652        9.7543751657       -3.1568456655
 O        -8.2680692325        8.7333276869       -3.5185027943
 C        -9.6155431267       10.7685550083       -4.0477749779
 C       -10.7105899310        9.9124108017       -4.5979745050
 C       -11.4350072294       10.3578541242       -5.8519948551
 O       -11.0332367375       11.1360580953       -6.6870150336
 C       -13.1125390169       10.1202046605       -5.8917210280
 C       -13.6742882374        8.7539736588       -5.1536437873
 O       -13.2964206632        8.5847712489       -4.0270188916
 C       -14.6927495758        7.8047984255       -5.6970811664
 C       -13.4629342801       11.3442819881       -5.0389597418
 C       -13.6523101042       10.2285027416       -7.3132658978
 C        -9.6759189555       10.2409369924       -0.8435015513
 C        -7.7374917299       11.7010411545       -1.8444016516
 C        -4.9857888233        4.1968498551       -1.5657394919
 C        -6.3800284265        5.1588788193       -3.5270582865
 C       -12.1123563911        0.1049217361       -1.7457722431
 C       -12.2931364093        1.9127372883        0.2113615770
 C       -10.3589851049       -5.5492430671        2.6591635256
 C       -12.5073682878       -4.5083716218        3.7048509823
 C        -8.9891284946       -0.3108368575        8.2036657371
 C       -10.6745472322        1.0489385313        6.9308229185
 H        -6.5815225940        0.7715507121        6.7335205812
 H        -6.5512701254        0.0800520870        5.0752409100
 H        -7.1094180264       -0.9772571214        6.5009889353
 H        -9.3102402853       -2.6715796533        7.5430614519
 H        -8.6218111956       -2.9185687766        5.8797276471
 H       -11.3791878406       -3.6149181445        6.1408041370
 H       -10.0457855675       -4.6639215010        6.4229112358
 H       -12.7258568242       -2.7532804757        1.9291414628
 H       -12.0471993177       -3.8638108849        0.8763832062
 H       -12.0389948764       -2.0953015535       -0.6424909092
 H       -10.4101495762       -1.9825521997       -0.0317299214
 H       -10.1865172200        2.2094649955       -1.7996757650
 H        -8.8046490154        0.9616597141       -2.2503109475
 H        -7.2980166574        1.6563502063       -0.6871250969
 H        -8.4061306886        3.0897621356       -0.2539466521
 H        -6.1341487740        7.3155982374       -2.1735381711
 H        -5.6071664415        7.1203153419       -0.5780864609
 H        -7.6313969409        7.9712960889        0.4448962603
 H        -8.5183755014        7.9313023950       -1.1142238059
 H        -8.9268001226       11.2189412746       -4.7379334145
 H       -10.0052160445       11.5175380765       -3.3635383365
 H       -11.4731728430        9.9631472060       -3.8083127661
 H       -10.4297439561        8.9434046645       -4.6521338132
 H       -14.1367548162        6.9238092320       -6.0783880669
 H       -15.3748669183        8.2641409494       -6.3249511950
 H       -15.2462421954        7.5146586963       -4.8442222859
 H       -13.2639961459       12.3086187597       -5.6175496875
 H       -12.8569580351       11.1570885756       -4.1387733460
 H       -14.4858638777       11.3543132217       -4.8267149279
 H       -14.1834290949       11.1952718767       -7.3775631031
 H       -14.3272925016        9.5088809932       -7.6899575212
 H       -12.8529025996       10.1135370224       -8.0536914857
 H       -10.2595203231        9.5387413617       -1.2692901048
 H       -10.3565802391       11.1015098350       -1.0159613113
 H        -9.4631442373       10.0379090184        0.2881234918
 H        -8.4800019084       12.4527164338       -2.0996917970
 H        -6.8772389246       11.6602356811       -2.4341172906
 H        -7.3619332757       12.0588736095       -0.8892654017
 H        -4.6153593708        3.4075797552       -2.1773061091
 H        -4.7781229271        3.9793448621       -0.4659579401
 H        -4.3899805782        4.9264690535       -1.9502185386
 H        -5.4899274065        4.7177090290       -4.0673573748
 H        -6.4348279491        6.2488526262       -3.5820477163
 H        -7.2806328257        4.6942182024       -4.0363387099
 H       -12.4147072934        1.0409026168       -2.2188025177
 H       -12.9666586744       -0.5016459106       -1.5366570254
 H       -11.3247142148       -0.3702090658       -2.3561111094
 H       -12.3788726612        2.8351416795       -0.3975477280
 H       -11.8324561839        2.2297268822        1.1935394811
 H       -13.2946007790        1.6391164086        0.4546715671
 H        -9.2932229195       -5.6973540375        2.8091424544
 H       -10.6235974822       -5.4694106874        1.4905083478
 H       -10.8259894712       -6.4869618631        2.8147555993
 H       -12.7632220823       -5.3842912553        4.3573244697
 H       -13.1587779343       -4.6693339835        2.7462217769
 H       -12.9427889756       -3.6267051931        4.0858434288
 H        -8.1450627266       -0.9884203954        8.2300049257
 H        -9.8187357479       -0.7987177985        8.7009409647
 H        -8.8335769358        0.5663455678        8.7944628651
 H       -11.3889216358        0.6595361871        7.6585160354
 H       -11.0210953516        1.3632896625        5.9512192156
 H       -10.2959510353        2.0478772021        7.4325097903
 Na      -10.1033642254       -0.0158420857        2.9349193068
