117

 C        -6.7067382926        0.7247460658        6.4443892028
 C        -8.2573546524        0.6553586600        5.9391345469
 O        -8.5758632211        1.0868685678        4.8809008878
 C        -9.4378210325        0.0909832229        6.8413203883
 C        -9.7992334488       -1.3314095705        6.1615782654
 O       -10.1610320682       -1.1196925915        5.0028941097
 C        -9.6276358450       -2.7450978026        6.8242686378
 C       -10.3897430981       -3.7833183521        6.0678780270
 C        -9.9587703093       -3.8637170468        4.5541275076
 O        -8.8512719039       -3.5498878261        4.2505233908
 C       -11.1003153124       -4.3184330982        3.3779738483
 C       -11.1695887771       -2.9774151013        2.3652456254
 O       -10.4134492115       -2.1045627928        2.6677428880
 C       -12.1935070609       -3.0253921382        1.1296148036
 C       -11.7254710004       -2.0246591713        0.1487909490
 C       -11.9142865566       -0.4744185515        0.6757670944
 O       -11.9955896334       -0.1410257193        1.8489576235
 C       -11.7065917832        0.6535108595       -0.3790389032
 C       -10.0348695919        0.8412711781       -0.2375494426
 O        -9.4658665497        0.3167521305        0.6647616302
 C        -9.4830985321        1.9498948390       -1.2166291582
 C        -7.9785768630        2.2366887339       -0.9484365342
 C        -7.3842270629        2.9830181947       -2.1754315891
 O        -7.2755541662        2.3653350565       -3.2179372699
 C        -6.5597230659        4.3044121507       -1.8531042860
 C        -7.1233189163        5.3097965173       -0.7695521705
 O        -8.1749849979        4.9326557439       -0.2496263512
 C        -6.7035446677        6.8117929761       -0.6530351384
 C        -7.7322338351        7.9273001172       -0.9687558285
 C        -7.1478719234        9.2001434883       -1.5445741853
 O        -5.9210676695        9.3578573011       -1.3853576008
 C        -8.2020559661       10.4257648653       -1.9426537376
 C        -8.5447088084        9.8620469355       -3.4254040224
 O        -7.8530311899        8.8976420267       -3.6630068117
 C        -9.5518227163       10.4277527078       -4.3654073561
 C       -10.5489620701        9.4401523467       -4.8566093724
 C       -11.4793910171       10.2878466255       -5.7768060098
 O       -11.0583626501       10.6796618026       -6.8464301270
 C       -13.1768797223       10.3017464779       -5.7923148181
 C       -13.6770871125        9.0504385248       -5.1291683992
 O       -13.1971505690        8.7108487664       -4.0970940972
 C       -14.8336917044        8.2592062133       -5.8579122326
 C       -13.7400629388       11.4861965188       -4.9603379741
 C       -13.4625040995       10.4882840397       -7.2809353530
 C        -9.4266088441       10.6278142018       -0.9989300676
 C        -7.3512159366       11.7828314292       -2.1524542887
 C        -5.1130223042        3.7898602707       -1.3974508669
 C        -6.5529995021        5.0875500475       -3.3162500376
 C       -12.1225190758        0.3275144193       -1.8266136182
 C       -12.3876958222        1.9636774166        0.1288435028
 C       -10.8038642324       -5.5177959757        2.4912802783
 C       -12.3886560048       -4.8247666131        4.1897137837
 C        -9.1013334504        0.0140063295        8.4506930100
 C       -10.6896237189        1.0398837136        6.6903955493
 H        -6.2499074461        1.5787819998        5.9708342069
 H        -6.2770271860       -0.2234757347        6.0293362829
 H        -6.5292104574        0.6154877868        7.4907927102
 H       -10.0527292189       -2.9103023662        7.7968458403
 H        -8.5401193573       -2.8432184536        6.7889118151
 H       -11.4887965385       -3.5379626670        6.2172514782
 H       -10.1604178258       -4.6806368039        6.6279424340
 H       -13.2417434733       -2.7733102094        1.4489536140
 H       -12.3758787081       -3.9652885443        0.6492412655
 H       -12.0537735734       -2.2529469019       -0.8328778229
 H       -10.6251328101       -1.8603381217        0.1466477695
 H       -10.0214094792        2.8910997135       -1.2139000971
 H        -9.5258534341        1.4750719458       -2.2355827891
 H        -7.4705206460        1.2461410704       -1.1506434012
 H        -7.8733380989        2.6728966078       -0.0182184727
 H        -5.7883538920        6.9717896974       -1.1788490974
 H        -6.4341653582        7.0940090900        0.4326901176
 H        -8.2510700480        8.3448967108       -0.1219754309
 H        -8.4649921929        7.4628350451       -1.5791345223
 H        -8.9581461914       10.8747659699       -5.1678799541
 H       -10.0557982740       11.2147012083       -3.6915613590
 H       -11.0419654494        8.7274399610       -4.1238592168
 H       -10.0086856254        8.7961403761       -5.5614574616
 H       -14.3719990023        8.0962752419       -6.8263849710
 H       -15.7383208772        8.8730170332       -5.8845285896
 H       -15.1224729395        7.2909782626       -5.4027074165
 H       -13.2039597794       12.4053879826       -5.3615351059
 H       -13.5565770098       11.0596217972       -3.9558824947
 H       -14.7561216346       11.6969858249       -5.0978272252
 H       -13.7855899523       11.4630360388       -7.6124917666
 H       -14.2741068116        9.8354085762       -7.5598189290
 H       -12.7229318452       10.0697058332       -8.0017761376
 H        -9.8309364738        9.6723999656       -0.8946757353
 H       -10.2261759227       11.1608889716       -1.4672503613
 H        -9.2103506973       11.2244319424       -0.0462868991
 H        -7.9510068852       12.4331180214       -2.7451957607
 H        -6.2815884030       11.7214435844       -2.4154876304
 H        -7.3852068702       12.3404796147       -1.2004512367
 H        -4.5003879589        3.5500792130       -2.2179418824
 H        -5.2996376848        2.9575663672       -0.5461538137
 H        -4.5012921290        4.6096758117       -0.9912167729
 H        -5.9121767813        5.9480181368       -3.2810000467
 H        -7.5572115709        5.3939307848       -3.3501456052
 H        -6.2895037176        4.5228721257       -4.1604146347
 H       -11.5023494212        1.1108921431       -2.4208917773
 H       -13.2195340480        0.4420213791       -2.0346916171
 H       -11.8600597331       -0.7436178310       -2.1169587836
 H       -11.9531598845        2.8099942739       -0.3727556709
 H       -11.9587177813        2.1366303289        1.1400152806
 H       -13.4040643182        2.0965247811        0.0959946845
 H       -11.0203215547       -5.4205028575        1.4051249639
 H       -11.3150382635       -6.4673091595        2.9324808445
 H        -9.8063526554       -5.7885842428        2.4759824025
 H       -12.1513521051       -5.5490001120        4.9247986163
 H       -13.0897871032       -5.1921724622        3.4037557830
 H       -12.9604973721       -4.0857351951        4.6777250571
 H        -8.1759805122       -0.5439314319        8.6072463243
 H        -9.8792216090       -0.4599814328        9.0626020331
 H        -8.9464511371        1.0582514114        8.8235333997
 H       -11.3856051741        0.8015622138        7.4383046008
 H       -11.0461058421        1.1371220310        5.6768443909
 H       -10.3056311121        2.1017862928        6.8193033248
 Na      -10.0719366195        0.3378226482        3.0677397228
