117

 C       -12.0899687209        8.3746850935       -3.5139130077
 C       -10.8265074706        8.8794189461       -4.2170809079
 O       -10.5025518356        9.9994918232       -4.1582689845
 C       -10.0153221148        7.8773328250       -5.1274765923
 C        -9.0516169019        7.1461219131       -4.0294155403
 O        -9.2634084609        5.9761224259       -3.8139545386
 C        -7.9259692381        7.9257193525       -3.3436676461
 C        -6.7195229182        7.0214613834       -3.1381223934
 C        -6.8792144651        6.1185634636       -1.9220808360
 O        -7.2426992248        6.5471549407       -0.8221130191
 C        -6.4365518039        4.6212482161       -2.0353036776
 C        -5.4959535984        4.2322444230       -0.7742616568
 O        -4.3540673542        3.8595465066       -0.8921959291
 C        -6.1896893604        4.1986644196        0.6333337396
 C        -5.4847300038        3.5131981207        1.8266533188
 C        -6.5606433893        2.7232974200        2.6543382585
 O        -7.4232710486        2.0379522161        2.1050459320
 C        -6.4925053138        2.6966792150        4.2175089917
 C        -7.0220151743        4.0907204432        4.7108871759
 O        -6.5913307507        5.1079810356        4.1679575675
 C        -8.2084273675        4.0727054561        5.7709715001
 C        -9.4776988900        4.7697972276        5.0926722918
 C       -10.0936557262        3.9893278583        3.9739985895
 O        -9.9835234999        2.7625634544        3.8903688925
 C       -11.0621042638        4.7669938301        3.0166567886
 C       -12.1353329674        3.8845105040        2.3596764770
 O       -11.7123226299        2.9390682259        1.6379222896
 C       -13.6401670289        4.2044733704        2.4541964298
 C       -14.3862859636        3.1712829312        1.6817699884
 C       -14.0583959506        3.1378659485        0.1891623906
 O       -13.3007809491        3.9912248877       -0.3161821617
 C       -14.7872258445        2.1416826840       -0.6880544541
 C       -13.6266216563        1.1566015404       -1.1088906758
 O       -13.3417004233        0.2302393262       -0.3882446484
 C       -12.7010671225        1.6800786964       -2.2125287370
 C       -11.5099202716        0.7440422314       -2.5818015329
 C       -10.4247155365        0.6271028492       -1.5130148011
 O       -10.0916172752        1.6116792707       -0.9203350171
 C        -9.8423451211       -0.7389183914       -1.0546821469
 C       -10.7151949922       -1.0933596624        0.2941374918
 O       -10.4616770521       -0.5076472139        1.3341322117
 C       -11.6652374425       -2.3192334433        0.3255983113
 C        -9.9523746983       -1.8425872513       -2.1258301082
 C        -8.3758450860       -0.5465439538       -0.6237187566
 C       -15.8833532668        1.3746027451        0.0785460168
 C       -15.2668830256        2.8149724262       -2.0199985196
 C       -11.7067347592        5.9364655036        3.8866197457
 C       -10.2367480589        5.3673287402        1.8361796176
 C        -7.2335436650        1.4180686460        4.7477160181
 C        -5.0169847793        2.5987409520        4.7101020864
 C        -7.6859465138        3.6929654637       -2.0531992987
 C        -5.7466138998        4.3340204483       -3.3674755976
 C       -11.0230216018        6.8708086250       -5.6640363034
 C        -9.3070144918        8.4627045883       -6.3713344471
 H       -11.8205212869        7.5674777068       -2.8619242280
 H       -12.7215235057        7.7175693817       -4.1075594625
 H       -12.5679925523        9.0336512321       -2.8099880219
 H        -8.1974109974        8.3867794852       -2.4410626604
 H        -7.6840771086        8.5555680024       -4.1143673795
 H        -5.7283017413        7.5514017608       -3.0317958119
 H        -6.6254953150        6.4467609931       -4.0631682149
 H        -7.1315284355        3.7591797859        0.4978345789
 H        -6.3439687407        5.2736633508        0.8966304906
 H        -4.7496186380        4.0614611698        2.4098479942
 H        -4.8215467536        2.7044177726        1.4510060931
 H        -7.9363428714        4.7267082740        6.5803738129
 H        -8.2938125619        3.0590278168        6.0962137023
 H        -9.1384246731        5.8483028628        4.9168396339
 H       -10.2310575158        4.9420603428        5.8239917036
 H       -13.8728777325        5.1946542710        1.9589987907
 H       -14.0115177695        4.4169715081        3.4978277855
 H       -15.4751366174        3.3362554577        1.8176424236
 H       -14.1340751464        2.2172896519        2.1608602774
 H       -12.2279064402        2.5761892527       -1.7959112374
 H       -13.2198196592        1.9560699068       -3.1593869381
 H       -11.1420355025        1.1349328576       -3.5169291994
 H       -11.9473643417       -0.1520789153       -2.8114199695
 H       -11.9576692401       -2.4680424560        1.3371772739
 H       -11.4964293689       -3.2929698085       -0.1602355655
 H       -12.7258672862       -2.1186478928        0.0137009591
 H        -9.5566577675       -1.5027031514       -3.1077889662
 H       -10.9314751941       -1.9560745034       -2.5245464639
 H        -9.5422752601       -2.7754439345       -1.8020084636
 H        -8.4183958542       -0.0946539985        0.3746882975
 H        -7.7494374259        0.0468590676       -1.3257506995
 H        -7.8960990926       -1.4722366784       -0.5128676545
 H       -15.4729902583        1.0140294630        0.9606035645
 H       -16.2314618824        0.5129928740       -0.4895593708
 H       -16.8193756433        1.9117096565        0.2582000593
 H       -15.5472272242        2.1520418819       -2.7651060630
 H       -14.4391088460        3.4932555203       -2.4033834194
 H       -16.0307103893        3.5138575222       -1.9106954037
 H       -10.9035675608        6.5996673840        4.1990052344
 H       -12.0694146066        5.6563882403        4.8908219565
 H       -12.4961827460        6.4647657563        3.4749440613
 H        -9.4445675659        6.0110989668        2.1793078377
 H       -10.9042985545        5.9368491308        1.2874178331
 H        -9.6372825698        4.6491392079        1.2820003686
 H        -6.9276334933        1.3503729925        5.8625781962
 H        -7.1051306867        0.5899922655        4.0494934287
 H        -8.2561525018        1.5344071208        4.5883361710
 H        -4.4956540238        1.9228259299        4.0017125175
 H        -5.0100345153        2.3955169775        5.7921803762
 H        -4.5475301555        3.5981009003        4.5756541611
 H        -8.1068806964        3.5970994645       -1.0279246195
 H        -7.4397286772        2.7511003269       -2.5128213530
 H        -8.6057038930        4.1294685872       -2.5584847378
 H        -6.4087175704        4.4382109022       -4.2775116453
 H        -5.4510901149        3.2838922298       -3.3357150778
 H        -4.8170801586        4.9453854086       -3.3598431085
 H       -10.6209316622        6.3741072183       -6.5866707801
 H       -11.9389600700        7.3397614058       -6.0730509585
 H       -11.2684501962        5.9721037080       -5.0342286902
 H        -8.6825954693        9.2414303766       -5.9538274130
 H       -10.0450509852        9.0872260168       -6.8353145599
 H        -8.6914222417        7.9041267495       -7.0604019781
 Na       -9.6322758436        1.9440926955        1.3882429353
