117

 C        -7.3235725349        1.8248552661        6.4826935834
 C        -8.1775536458        0.7378571629        5.8372941665
 O        -8.2906978003        0.6907472333        4.6132889963
 C        -9.2908116630        0.2057647814        6.8555805463
 C        -9.8520588260       -1.0780411968        6.2198086883
 O       -10.4388717988       -1.0781478052        5.1521138870
 C        -9.7261614068       -2.5676116898        6.8629875462
 C       -10.6316598114       -3.4602460454        6.0047716862
 C       -10.0706209755       -3.7046032526        4.5872635225
 O        -8.9250073921       -3.4252994094        4.4317183588
 C       -11.0189015840       -4.0646810324        3.3697865239
 C       -10.9999935030       -3.0139820464        2.2953645025
 O       -10.0701083476       -2.3213191794        1.8588432421
 C       -12.4052463442       -2.6340006127        1.7976481800
 C       -12.4594785978       -1.7015467845        0.6731287809
 C       -12.1082939380       -0.2413756134        1.0690069209
 O       -12.1926489544        0.0291400371        2.2935862076
 C       -11.6212938570        0.6887296369        0.0794704973
 C       -10.0862489788        1.3084538506        0.2652750046
 O        -9.7330388915        1.4828002560        1.4240869506
 C        -9.3359767043        1.6683590277       -1.0190803922
 C        -7.8626129412        1.9183185377       -0.6972370667
 C        -7.2357832804        2.7782767290       -1.9059847025
 O        -7.2611932748        2.3392859264       -3.0315937240
 C        -6.6630841456        4.3347515809       -1.6237756896
 C        -7.9229693196        4.9893823206       -0.8873943256
 O        -8.9612609349        4.3426637862       -0.8627058495
 C        -7.7443699213        6.4840511579       -0.4569223650
 C        -8.1110298806        7.3613984533       -1.7561011911
 C        -7.0828691779        8.6517428548       -1.8788539438
 O        -5.9264014979        8.5007577791       -1.6551904365
 C        -7.7012761376        9.8606376249       -2.4934996272
 C        -8.2866533223        9.4320202998       -3.9032291735
 O        -7.8868875269        8.5461016322       -4.6269556818
 C        -9.3000555357       10.4960406295       -4.5127540917
 C       -10.5108245390        9.6079373921       -4.8128075048
 C       -11.3676301194       10.1830267367       -6.0010773978
 O       -10.8196024068       10.2900669181       -7.0608849471
 C       -12.9453333838       10.5911462196       -5.7652641027
 C       -13.6816431372        9.1866262318       -5.2039805577
 O       -13.3490941179        8.7085072366       -4.1013756246
 C       -14.8749831845        8.5385687063       -5.9584164997
 C       -13.4059070576       11.6134755450       -4.6924476379
 C       -13.4212904435       11.0392577090       -7.0951979708
 C        -8.7148681440       10.4376743350       -1.3998857609
 C        -6.3898309543       10.8988019065       -2.7978560384
 C        -5.2716687789        4.1951429423       -0.7671537023
 C        -6.2679282871        5.0623989186       -2.9227867985
 C       -11.7115800297        0.0739766847       -1.2718848298
 C       -12.5662437266        1.9152901054        0.1892490004
 C       -10.6051914047       -5.2767518393        2.5577517939
 C       -12.3744408352       -4.1987052458        4.0168820895
 C        -8.8467017485        0.0896819258        8.2750589339
 C       -10.4312783448        1.2788712277        6.7394595930
 H        -6.4381368615        1.4454307273        6.9687558419
 H        -8.0046676985        2.2795455774        7.1389008768
 H        -6.8756942140        2.4988824248        5.7660545499
 H        -9.9575095369       -2.4804023338        7.9386106352
 H        -8.7893216480       -2.8608135053        6.5115657155
 H       -11.4290402782       -2.8326197784        5.7304254803
 H       -10.9782538469       -4.4273372962        6.4260946355
 H       -12.8898480966       -2.1372182289        2.6100945013
 H       -13.0625600881       -3.5159027865        1.5144899756
 H       -13.5267335327       -1.5973435290        0.4409612078
 H       -11.9365366416       -2.0196616159       -0.2108933981
 H        -9.7869796283        2.5091607410       -1.5715847455
 H        -9.3361855272        0.8112351646       -1.7155741767
 H        -7.5064155969        0.9187253331       -0.5822324315
 H        -7.5757218334        2.4274145822        0.2997335904
 H        -6.6837153598        6.7675505655       -0.2428234745
 H        -8.3503232366        6.8552924815        0.3270204274
 H        -9.1354755037        7.7125031919       -1.7437924463
 H        -7.9657226139        6.7532440753       -2.6117375332
 H        -8.9474384582       11.0241096262       -5.4798483350
 H        -9.6836472488       11.2657638214       -3.8004735892
 H       -11.0877097773        9.3024211612       -3.9334179330
 H       -10.2013301452        8.6462365355       -5.2547187946
 H       -14.4944248009        7.7330068746       -6.6663984951
 H       -15.2688001922        9.3356617815       -6.6036773685
 H       -15.5931940620        8.1672237198       -5.2369172072
 H       -12.8595542616       12.4978129352       -5.0232243031
 H       -13.1897394200       11.2963763984       -3.6847326344
 H       -14.5345609212       11.6457358343       -4.8196723740
 H       -12.5549241659       11.0722672019       -7.7944803468
 H       -13.8208580425       12.0261825074       -6.9958450060
 H       -14.0240934948       10.4524503457       -7.7261484571
 H        -9.8203068121       10.1259455299       -1.7124128468
 H        -8.5833899867       11.5002244652       -1.3800914478
 H        -8.5863226968       10.0769264977       -0.4112429664
 H        -6.6739702395       11.9824785496       -2.9578415903
 H        -6.0267966823       10.5373149183       -3.7435842715
 H        -5.6869859094       10.8672652592       -1.9818455904
 H        -5.0428621166        3.0405690412       -0.8023077814
 H        -5.1949770236        4.6197399849        0.1995631444
 H        -4.3934636647        4.7388249491       -1.2185882007
 H        -5.5382913438        5.7687085068       -2.7255935972
 H        -6.9993115803        5.4279244329       -3.6106154856
 H        -5.8358475446        4.2719970972       -3.5424232775
 H       -11.4206746754        0.6803060179       -2.1455333020
 H       -12.8010199601       -0.1819838440       -1.5857690074
 H       -11.1272536330       -0.9150757760       -1.3335895228
 H       -12.2601692123        2.7244911841       -0.4544211725
 H       -12.7006018175        2.2770285688        1.1577554737
 H       -13.5854005775        1.6070933077       -0.1190585697
 H       -10.9304032682       -6.2541924940        2.9520757357
 H        -9.5659768695       -5.3458573064        2.3085180367
 H       -11.2175759696       -5.1669714678        1.5354087463
 H       -12.4009117206       -4.7412967964        4.9785201540
 H       -12.8278285422       -4.7625702138        3.2875185176
 H       -12.9425364462       -3.2243257762        4.1641178173
 H        -7.9960825105       -0.5858110072        8.4724101089
 H        -9.7317493257       -0.2437352689        8.8227532393
 H        -8.6083110446        1.0478454025        8.6740122665
 H       -11.3795417333        1.0344695468        7.2909917162
 H       -10.8561119355        1.1402367328        5.7435930919
 H       -10.0053952407        2.2376446904        6.9374956062
 Na       -9.9300202967       -0.1211306108        3.0589085759
