117

 C        -7.3816108691        2.1237836250        5.9157272276
 C        -8.3612071536        0.9795040556        5.6527253351
 O        -8.1496547977        0.3184888584        4.6635192302
 C        -9.4086476402        0.4173683105        6.7224829438
 C       -10.1938606346       -0.8600970286        6.0716876325
 O       -11.0211836849       -0.6538950795        5.1826625405
 C        -9.7720936355       -2.1695009104        6.7888462759
 C       -10.2190422313       -3.5643601122        6.1862241658
 C       -10.0294518204       -3.6144213052        4.6228347109
 O        -8.8886677809       -3.4126210857        4.2124943406
 C       -11.1064665742       -4.3543647295        3.5490110987
 C       -11.3079153135       -2.9673974313        2.5305208593
 O       -10.3540303084       -2.3907931031        2.0730897072
 C       -12.8160333389       -2.2504201222        2.2250678811
 C       -12.5584969090       -1.4493447678        0.8684394926
 C       -11.9313530258        0.0107084675        1.1059899549
 O       -11.8131872017        0.4637246195        2.2836855631
 C       -11.6145535987        1.0289335375       -0.0328087414
 C       -10.0644959906        1.3047586838        0.3306733515
 O        -9.7363369414        1.6708190664        1.5199118592
 C        -9.0553607021        1.0677204114       -0.7174797043
 C        -7.8005685148        1.7707667034       -0.4179923608
 C        -7.2894499631        2.5804844004       -1.6507235617
 O        -7.3098297769        2.0516169466       -2.7493725629
 C        -6.8116305459        4.0603416137       -1.4939148948
 C        -8.1404024543        4.8945463630       -1.2166163648
 O        -9.2237517287        4.3005116032       -1.1376992047
 C        -7.9687982032        6.4043007514       -0.6740977051
 C        -8.2423277061        7.4338633111       -1.7952327517
 C        -7.0863923364        8.4959968721       -1.9816392447
 O        -6.0065432428        8.2033506043       -1.5679927461
 C        -7.3669634451        9.7450124153       -2.8623104676
 C        -8.0676694377        9.3414556500       -4.2422853349
 O        -7.8180025973        8.2038850204       -4.5931319198
 C        -9.1597295427       10.1009673230       -5.0286292412
 C       -10.6697789444        9.7600631838       -4.7471891701
 C       -11.5120925190       10.2258435829       -6.0685397167
 O       -11.0735224485       10.2517236286       -7.1588746576
 C       -13.0333383129       10.7269724489       -5.7933081635
 C       -13.7702223805        9.3662587728       -5.3229645191
 O       -13.4359903396        8.8150242729       -4.2719333659
 C       -14.8456210884        8.6686243868       -6.1350516065
 C       -12.8096076776       11.8284855675       -4.6561082916
 C       -13.6261573952       11.3636149629       -7.0483344372
 C        -7.9775503550       10.7032032276       -1.7918262977
 C        -5.9953568457       10.3635294097       -3.0863274896
 C        -5.9663242495        4.2525373066       -0.2042177989
 C        -6.0654631540        4.6367986572       -2.7614912881
 C       -11.7629337542        0.3784174171       -1.4165253926
 C       -12.4482505990        2.3856337983        0.0976983050
 C       -10.2077531985       -5.5315571160        2.8769666020
 C       -12.3674356504       -4.9219236695        4.2339950853
 C        -8.7232558482        0.1387770164        8.1161284949
 C       -10.5538704984        1.4096165481        7.1119209343
 H        -7.4305020531        2.5042637014        6.9878496909
 H        -7.4878791353        2.9404025418        5.2000643417
 H        -6.4201515483        1.5766138378        5.8846021471
 H       -10.0757279054       -1.9269956458        7.8368135833
 H        -8.7127017228       -1.9500264088        6.6151175803
 H       -11.1943572507       -3.9411658519        6.6679412419
 H        -9.4667500996       -4.4316633399        6.4056342369
 H       -13.2366157285       -1.5631735023        2.9776309404
 H       -13.5243087260       -3.0399975413        1.9889644893
 H       -13.5545268877       -1.1923968337        0.5108651373
 H       -11.9773613274       -1.8250964834       -0.0264783911
 H        -9.4799367822        1.2052343532       -1.6991263922
 H        -8.9891779702       -0.0437504023       -0.6209566379
 H        -6.9751272324        1.1113471522       -0.0969001897
 H        -7.9266544244        2.2280535951        0.5703280221
 H        -6.9724785890        6.7477565201       -0.3437724139
 H        -8.8215250737        6.4509595178        0.1022069346
 H        -9.2354728537        7.8711217279       -1.6737305886
 H        -8.2347566879        6.9010694137       -2.7546467116
 H        -9.0764643129        9.7328071239       -6.0018089362
 H        -8.9250516571       11.1676845128       -5.1811740114
 H       -11.1470159129       10.0160771656       -3.7434961992
 H       -10.6928016535        8.6558821540       -4.7646817235
 H       -14.3345358867        8.3116709176       -7.0944046895
 H       -15.6017533409        9.3219600983       -6.4832132338
 H       -15.0579929495        7.8236913175       -5.5295939355
 H       -11.9912086929       12.5204952305       -4.9271470065
 H       -12.3904900855       11.2230376969       -3.9128991841
 H       -13.7683589805       12.1677407401       -4.3608104710
 H       -13.2781992731       12.3996724913       -7.3530499000
 H       -14.6787660165       11.3966527280       -6.9229381209
 H       -13.3259424089       10.7681687451       -7.9139857693
 H        -7.8279661679       11.8062434302       -2.0780660611
 H        -7.3852290978       10.6955688657       -0.8908238599
 H        -9.0422255434       10.5755782040       -1.6256996731
 H        -6.0212612078       10.9881762904       -4.0261861566
 H        -5.2529746550        9.6396262684       -3.2892903059
 H        -5.7100034743       10.8886076211       -2.1478308358
 H        -6.6911490218        3.8402889681        0.6273057687
 H        -5.5943780128        5.1911282666        0.0807168078
 H        -5.0746901974        3.6544343293       -0.3306016111
 H        -6.2710027351        5.6862575416       -2.7418238523
 H        -6.4054646919        4.2516295718       -3.7207831306
 H        -4.9147391783        4.5084632788       -2.8919962738
 H       -11.5136438304        1.0029132446       -2.2209792748
 H       -12.7703174828        0.1334105618       -1.6292769489
 H       -11.1155031767       -0.4153335093       -1.6586115988
 H       -12.1163079104        3.1235619778       -0.6706739261
 H       -12.2302823669        2.7857682377        1.1007047998
 H       -13.5333200502        2.3535009747        0.1176876121
 H        -9.7431703224       -5.8785739572        3.6982056045
 H        -9.4159347199       -5.2334536978        2.2665487831
 H       -10.6946912431       -6.4758707995        2.5015039185
 H       -12.0365558847       -5.7594121120        4.9309159726
 H       -13.0314809022       -5.3326369726        3.5566094628
 H       -12.7694835469       -4.1266895749        4.8314910867
 H        -7.7598224179       -0.3562077784        7.9211228659
 H        -9.2684759935       -0.4361509333        8.8634101380
 H        -8.4407909437        1.0814301624        8.5327797518
 H       -11.2269240509        1.1982661473        7.9588170253
 H       -11.2106041702        1.4358114706        6.3072843374
 H       -10.0757473677        2.3737983902        7.3630748372
 Na       -9.7708679928       -0.3489520188        3.1130978114
