117

 C       -12.0134711706        8.2814166108       -3.5614212560
 C       -10.8616362233        8.8026964328       -4.3575607877
 O       -10.4580665685        9.9484175136       -4.2381930297
 C       -10.1159781526        7.7386752696       -5.1703526960
 C        -9.1618661702        7.0491309144       -4.1330354496
 O        -9.3851025974        5.9347045542       -3.6722480658
 C        -7.9997799264        7.9038303448       -3.5234163931
 C        -6.8116780931        7.0097485207       -3.1930164087
 C        -6.8722886913        6.1091314790       -1.9189023518
 O        -7.2857867355        6.5570818292       -0.8874677815
 C        -6.4682096181        4.6136958484       -2.0327241515
 C        -5.6691654917        4.2712439624       -0.7621540198
 O        -4.4949263950        3.9681104263       -0.9814817493
 C        -6.3725636074        4.3796229432        0.5924696292
 C        -5.6025179381        3.6616242819        1.7091492812
 C        -6.5288034501        2.7995654366        2.6240509925
 O        -7.3996308409        2.1796386002        2.0722150753
 C        -6.4240325427        2.7115816580        4.2120444813
 C        -7.0353082396        4.1162665596        4.6645756192
 O        -6.6129596079        5.1336694057        4.1591669685
 C        -8.1328977539        4.1275013057        5.6848592832
 C        -9.4169171403        4.8628954543        5.0509722861
 C       -10.0615410575        4.0463817519        3.9883935422
 O       -10.0443548896        2.8360507019        3.8633870385
 C       -10.9339694005        4.9490831750        2.9901373550
 C       -12.0088403297        3.9729817748        2.3098348154
 O       -11.6405980022        2.9369185671        1.8129367251
 C       -13.4696607527        4.2331686499        2.3695651674
 C       -14.3765154810        3.1668562508        1.7174920922
 C       -14.1166694997        3.1667751466        0.1910716885
 O       -13.2660776698        3.9658297320       -0.2771275659
 C       -14.7608372779        2.0348795155       -0.7072895017
 C       -13.5160226424        1.1206056735       -1.0358892932
 O       -13.3468925708        0.1472622713       -0.3741773608
 C       -12.5797694677        1.6415247688       -2.1671867343
 C       -11.5331789001        0.6519033657       -2.5292663484
 C       -10.4708707308        0.6191869829       -1.3818498876
 O       -10.0557568457        1.6987934507       -0.9613564382
 C        -9.8829195907       -0.8079937331       -0.9034050779
 C       -10.6501362571       -1.2538526845        0.3281164151
 O       -10.4800149773       -0.5414275716        1.2997613655
 C       -11.6772334857       -2.3351197222        0.2239709852
 C        -9.9670090292       -1.7988362439       -2.0961028814
 C        -8.4658318168       -0.5824542363       -0.4188018419
 C       -15.7904234428        1.2197057830        0.1050587241
 C       -15.4131455949        2.7521713666       -1.9496042498
 C       -11.6277987510        5.9852632776        3.8913835615
 C       -10.0284078752        5.6184497170        1.9005280489
 C        -7.2172371414        1.5699492101        4.7705858141
 C        -4.8897134419        2.5817803122        4.6557549219
 C        -7.8189496717        3.7310060507       -2.0269136324
 C        -5.6415874694        4.1973021307       -3.2993360732
 C       -11.1041001865        6.6801320052       -5.7791765966
 C        -9.2999587208        8.3564073776       -6.2916821342
 H       -11.6675178628        7.4390009342       -2.8655324103
 H       -12.7004857564        7.6335005331       -4.1040566948
 H       -12.4648664897        8.9401271404       -2.7895537388
 H        -8.3336142261        8.1857374149       -2.5086490285
 H        -7.6944291539        8.7398369447       -4.1679496849
 H        -6.0247123420        7.6971111279       -2.9681040727
 H        -6.4772854982        6.4964738420       -4.0565091754
 H        -7.3901203691        4.0315796603        0.4576052349
 H        -6.4028283761        5.4203736189        0.8197184188
 H        -4.9983621829        4.3676799229        2.3578369167
 H        -4.7878522075        3.1378042003        1.2806454731
 H        -7.8856816897        4.6111414392        6.6623885444
 H        -8.3058059842        3.0968728537        5.8419394885
 H        -9.1936448450        5.9262812439        4.8187665913
 H       -10.1301024582        4.9712777867        5.8653519272
 H       -13.7948459846        5.2107063642        2.0098382540
 H       -13.7064844764        4.3750461389        3.4881251467
 H       -15.3746084642        3.3819842699        1.9864122997
 H       -14.1305816936        2.2312130507        2.1724843090
 H       -12.0353516170        2.5130061203       -1.8477317207
 H       -13.1521109295        1.8918155187       -3.0708905727
 H       -11.0053069896        1.1414101944       -3.4288321640
 H       -12.0498168790       -0.2203937359       -2.9578841635
 H       -12.1096375861       -2.5482787919        1.1639333009
 H       -11.4409069118       -3.2389621657       -0.3334743382
 H       -12.5975642882       -2.0182969612       -0.2164266897
 H        -9.4329916738       -1.4613677482       -2.8937323524
 H       -10.9160175380       -1.9560274990       -2.6656198458
 H        -9.6098053540       -2.7737755390       -1.7729394686
 H        -8.5404854612       -0.4715324075        0.7146571793
 H        -7.8709440658        0.1547047661       -0.8733009247
 H        -7.9422187408       -1.4695374211       -0.5746054254
 H       -15.3434144236        0.6938085271        0.9683771138
 H       -16.2831428682        0.5044066224       -0.4405389889
 H       -16.5478009512        1.8872832299        0.4027354153
 H       -15.3707533734        2.1367765406       -2.8165722609
 H       -14.8593806198        3.6870173446       -2.1759562934
 H       -16.4415359699        3.1003406559       -1.8506713661
 H       -10.9870815679        6.7747951574        4.1652201761
 H       -11.9559710789        5.6641723710        4.8161350513
 H       -12.4912047418        6.3837284059        3.4321293945
 H        -9.1095536114        6.0671464485        2.2930010449
 H       -10.6122066486        6.3888551968        1.3546166670
 H        -9.5849773689        4.8350571041        1.2486994169
 H        -7.1189176029        1.5659690572        5.8351607327
 H        -6.9749658306        0.6419699182        4.2007550504
 H        -8.2187358425        1.6827391147        4.3696947067
 H        -4.5235730143        1.6030608950        4.1956791780
 H        -4.7050476422        2.8088596839        5.7318673968
 H        -4.3991718990        3.3022717196        4.0694465083
 H        -8.4699576784        3.9694263732       -1.1779407014
 H        -7.5602606385        2.6493206792       -2.0947759497
 H        -8.5262852081        4.0050412491       -2.8517512725
 H        -6.3045682122        4.2661272858       -4.1837989306
 H        -5.3199028204        3.1681793425       -3.2517744245
 H        -4.7661251725        4.8037987937       -3.3282844824
 H       -10.5686368117        5.9491607757       -6.3643263146
 H       -11.8493994678        7.0491387796       -6.5453829687
 H       -11.5676567197        6.0405921905       -5.0273680197
 H        -8.9957752300        9.3941085993       -6.0011635246
 H        -9.9834328700        8.5191313232       -7.1417387098
 H        -8.3969214306        7.8433249635       -6.6238045428
 Na       -9.6121310771        1.8812493821        1.5232197499
