117

 C        -7.8132939461        2.5884143500        5.5664872480
 C        -8.4267759414        1.1602388178        5.4661192538
 O        -8.2354441701        0.4935725046        4.4729210975
 C        -9.3419414314        0.7532186990        6.6533486411
 C       -10.0119878787       -0.6089528610        6.2760851743
 O       -10.8723577460       -0.6927669843        5.4126078152
 C       -10.0608293341       -2.0564551103        7.2234120075
 C       -10.3943662942       -3.2033009849        6.2813307578
 C       -10.0837868520       -3.0629798842        4.6716573592
 O        -9.0113033835       -2.7176215574        4.1912161840
 C       -11.0423572201       -3.7532800358        3.5929635970
 C       -11.4471925190       -2.7262653898        2.3891670153
 O       -10.5632918744       -2.1008793209        1.7361359261
 C       -13.0046381211       -2.4568751176        2.1924089477
 C       -13.1857367371       -1.1682592355        1.3090004231
 C       -12.2801964087        0.1069096090        1.7016245485
 O       -12.1398517061        0.4139108057        2.8849247713
 C       -11.4044869220        0.8269353572        0.5489829362
 C        -9.8010969810        0.7760528139        0.7762963521
 O        -9.3174042539        0.6995081816        1.8648230155
 C        -8.9444525800        0.8287581288       -0.5175953256
 C        -7.6129367442        1.4511479104       -0.3240783692
 C        -7.4288410247        2.5763288906       -1.3836338254
 O        -7.4814619124        2.1865683282       -2.5259652273
 C        -6.9689668924        3.9322507335       -0.9660274283
 C        -8.3088810771        4.8465005140       -1.3672183365
 O        -9.3532510226        4.3218526838       -1.7829296432
 C        -8.2667956868        6.2930745933       -1.0165783231
 C        -8.4391223002        7.1218891589       -2.2596915708
 C        -7.1722487209        7.9494717975       -2.4088033785
 O        -6.3044135710        7.9063070210       -1.5700631317
 C        -7.2699008081        9.0160359668       -3.6294000238
 C        -8.1729109618        8.4630103857       -4.7631561855
 O        -8.2400000063        7.2824149065       -5.0505058785
 C        -8.9226759126        9.4867617856       -5.6822725410
 C       -10.2159267083       10.0625783810       -5.0120839551
 C       -11.2784369122       10.4972915885       -6.0583739509
 O       -11.2419852277       10.2164219087       -7.2054598592
 C       -12.6725085956       11.1595877681       -5.5029332854
 C       -13.5146916087        9.6952076014       -5.2821839607
 O       -13.6492022503        9.2697474615       -4.1885199097
 C       -13.8299848697        9.0454605847       -6.6330839220
 C       -12.3795991855       11.9804470180       -4.1855296288
 C       -13.3392631845       11.8657271123       -6.6674446208
 C        -7.5758383636       10.5466691227       -3.1013076874
 C        -5.8493757766        8.8391761543       -4.2371959512
 C        -6.6377671330        3.9967572329        0.4226220951
 C        -5.8819310788        4.4992726569       -1.9707233667
 C       -11.7367628855        0.3492952781       -0.8374019525
 C       -11.8645617025        2.2770077782        0.5126861408
 C       -10.0478108448       -4.8617501835        3.0406945703
 C       -12.3133961557       -4.4135504284        4.0519936805
 C        -8.3265151023        0.6652532584        7.8651570919
 C       -10.5534779146        1.7354327278        6.9793261197
 H        -7.4119028318        2.7428324972        4.5426028246
 H        -7.0125500243        2.7153726678        6.3459706509
 H        -8.5321996043        3.3397782391        5.8633087125
 H       -10.8832338000       -1.8434420018        7.8518335412
 H        -9.1566780500       -2.0935893724        7.8815745988
 H       -11.4912845197       -3.2405852865        6.3505936821
 H       -10.1835730879       -4.2417289231        6.4991682022
 H       -13.4137163376       -2.1231117191        3.1665032336
 H       -13.5423212762       -3.3407396013        1.8420283611
 H       -14.2079747351       -0.7716189244        1.3684757157
 H       -13.0684394110       -1.2191896835        0.2568567681
 H        -9.3384537208        1.2954153814       -1.4330720650
 H        -8.8357978336       -0.1552316476       -0.9012734035
 H        -6.8937302258        0.6810316962       -0.7727796712
 H        -7.2637269884        1.7447692005        0.6167932111
 H        -7.3010957123        6.4575278977       -0.6070985809
 H        -9.1598495535        6.4673530516       -0.3438886532
 H        -9.2495555835        7.7946188002       -2.0723709651
 H        -8.8561398716        6.5617630206       -3.0659483139
 H        -9.0130101451        9.0405855209       -6.7136339327
 H        -8.2193493451       10.3610377454       -5.8583504309
 H        -9.9126412567       10.7560010759       -4.2176011869
 H       -10.8629944197        9.3570543234       -4.4318000546
 H       -12.8710615577        8.8751712490       -7.1300716433
 H       -14.4603003327        9.7749162230       -7.1835249107
 H       -14.3969962188        8.0815357103       -6.5691544446
 H       -11.6677449486       12.7445351454       -4.5152099048
 H       -12.0801154598       11.2695208135       -3.3610934591
 H       -13.2540793932       12.4350717645       -3.9942384420
 H       -12.6784519469       12.2292779028       -7.3765395208
 H       -13.8497070019       12.7834289565       -6.3716211175
 H       -14.1991872036       11.2834238386       -6.9891851950
 H        -7.4897065721       10.6334918356       -2.0508505021
 H        -8.5255642109       10.9510887754       -3.3909140843
 H        -6.9156308183       11.3190647418       -3.4599910739
 H        -5.9316495226        9.0865301797       -5.3445927278
 H        -5.5657444133        7.7881901076       -4.1421943311
 H        -4.9851010355        9.4486551520       -3.7138587876
 H        -5.8961600720        4.8900433241        0.5476406783
 H        -5.9048093162        3.1868240751        0.7408561419
 H        -7.5349360618        4.1515909686        1.0610936156
 H        -5.6450795157        5.5137509206       -2.0047424103
 H        -6.1968424099        4.3418392932       -2.9198539668
 H        -4.8943098525        4.0285560731       -1.7391518431
 H       -11.3141360129        1.0403111653       -1.5717632378
 H       -12.7449395870        0.3015127619       -1.1719035619
 H       -11.4142389734       -0.6097018727       -1.2500626379
 H       -11.4113433053        2.7703631087       -0.3487863405
 H       -11.5370657397        2.8476211009        1.4534348785
 H       -12.9136968804        2.4003952056        0.3853163944
 H        -9.5159572010       -5.3672185920        3.7904277544
 H        -9.3008794421       -4.3053750717        2.4336010154
 H       -10.5200884302       -5.6640477825        2.4050970436
 H       -12.0529478226       -5.2286156828        4.8259066972
 H       -12.7920416364       -4.8992136781        3.1615422356
 H       -12.9537000856       -3.7013887489        4.3899452483
 H        -7.5604746281       -0.0022521683        7.5563568465
 H        -8.7170366100        0.2565519885        8.7838823717
 H        -7.8822790285        1.6456529937        8.1173898227
 H       -10.6859959700        1.8149051530        8.0139248574
 H       -11.3733082792        1.6693005573        6.4004536132
 H       -10.2577280529        2.8068618038        6.6550228157
 Na      -10.0924295398       -0.5857457136        3.5509027174
