117

 C        -7.6185187043        2.9394354765        6.7062718966
 C        -8.4300045313        1.6421929686        6.3502935136
 O        -8.3270375487        0.9793501336        5.3567298252
 C        -9.4277758938        1.0658689265        7.5658642108
 C       -10.1986006073       -0.0900513180        6.8836325486
 O       -11.3124138826        0.0901925427        6.4055165470
 C        -9.6454931994       -1.4483425688        6.8439328414
 C       -10.6370641049       -2.4237445163        6.1938564192
 C       -10.1364500879       -2.7902453051        4.7900735782
 O        -9.0671566560       -2.4886052172        4.3763937095
 C       -11.1813855713       -3.6743906503        3.9832761784
 C       -11.6178922992       -2.8696034579        2.7434831115
 O       -10.7448536664       -2.5962739820        1.9589019429
 C       -13.0306005410       -2.2299602966        2.6687978387
 C       -13.1756681172       -1.0518110533        1.6640870873
 C       -12.1615586127        0.0569601130        1.6497177339
 O       -11.6093903072        0.3742787243        2.7079409071
 C       -11.6949104950        0.7917372555        0.2861905031
 C       -10.1239581548        0.7304380255        0.2103041433
 O        -9.3219110682        0.3681472225        1.1174884881
 C        -9.6339505823        1.4061193825       -1.0173834676
 C        -8.1367667029        1.1702462368       -1.1732430948
 C        -7.1960072599        2.3188635089       -1.5819050636
 O        -6.4362272226        2.1138299600       -2.4977515721
 C        -7.1869507072        3.7836968079       -0.9277403071
 C        -8.4897055820        4.6188361305       -1.0335686756
 O        -9.4624660508        4.1049789280       -0.5727280311
 C        -8.7234358361        6.0890031958       -1.4116907803
 C        -8.4776338037        6.6764785606       -2.8278293022
 C        -7.1641613280        7.4742485240       -3.1942931144
 O        -6.4702153424        7.8703405927       -2.2722444973
 C        -7.0148616947        7.8377535409       -4.7083417550
 C        -8.3171263931        7.7778194986       -5.6207709427
 O        -8.5748331455        6.6619407428       -6.0042002367
 C        -9.1400857803        9.0183352900       -6.1904781628
 C       -10.3453305367        9.5702841338       -5.3795768164
 C       -10.9067479179       10.9291751950       -6.1371100897
 O       -10.2520159315       11.6975683540       -6.8314365623
 C       -12.2944998966       11.4309313645       -5.6455606947
 C       -13.2673830082       10.1104773481       -5.4003800624
 O       -13.8371058837        9.9658246953       -4.3279258873
 C       -13.3262633148        8.9595965071       -6.5059389624
 C       -11.9484000117       11.9728191194       -4.2020654578
 C       -12.8218676215       12.5776216093       -6.4712007557
 C        -6.2896644960        9.2631912727       -4.6884259625
 C        -6.0862680271        6.6315275214       -5.3197900687
 C        -7.0136763801        3.8108179735        0.6770240697
 C        -6.1212384211        4.5729564595       -1.6986506553
 C       -12.3692665061        0.1733658404       -0.9481455680
 C       -12.1580531840        2.2162217486        0.4023506765
 C       -10.3647182894       -4.8829659549        3.0460797130
 C       -12.3842273828       -4.3137353732        4.8222306348
 C        -8.8332097439        0.5990741937        8.9129426585
 C       -10.4936258301        2.1956745432        7.8604030523
 H        -7.3024796913        2.6612511189        7.7305590576
 H        -8.2068294470        3.8182387478        6.6058581032
 H        -6.7014766134        2.8717986662        6.0662072035
 H        -9.4697893606       -1.8316167900        7.8169176693
 H        -8.6044709104       -1.5081550853        6.3719560911
 H       -11.5865142092       -1.7682290017        6.2219332383
 H       -10.8897337401       -3.4092164647        6.7269288060
 H       -13.4239355738       -1.8163785035        3.6294985201
 H       -13.6963422216       -2.9878011452        2.2941436673
 H       -14.1361546446       -0.5381040467        1.6790653182
 H       -13.0753082201       -1.6093427439        0.6559634238
 H        -9.8857844429        2.5116309704       -0.9573831215
 H       -10.1791955838        1.1246710501       -1.9121406671
 H        -7.9738074450        0.3086331422       -1.9292389784
 H        -7.8446715629        0.8057924566       -0.2321194881
 H        -8.1615960934        6.7397124706       -0.6933110857
 H        -9.8171439604        6.3920777717       -1.0434424782
 H        -9.1661239538        7.5550279404       -2.7067501053
 H        -8.9038997633        6.2290413075       -3.7708935819
 H        -9.4972481882        8.6405469138       -7.0730998907
 H        -8.3968493756        9.8477885466       -6.3014965302
 H       -10.0055533386        9.9827467340       -4.4359279267
 H       -11.0992472262        8.8088323481       -5.2380582252
 H       -14.0417422530        8.1803167671       -6.1182012507
 H       -12.3641707111        8.6381368948       -6.7504502935
 H       -13.6777220304        9.3535627648       -7.4342117637
 H       -11.0399787724       12.5942675348       -4.3070667494
 H       -11.8598659356       11.0646120240       -3.6469271512
 H       -12.7739259933       12.5311853593       -3.7170092959
 H       -13.1070344039       13.3204425861       -5.6981900369
 H       -13.4488157214       12.4509504250       -7.3340864202
 H       -11.9814245529       13.0623959895       -7.0001907244
 H        -5.8062417668        9.5961436035       -5.6478303744
 H        -5.5269183605        9.3393513671       -3.8751264231
 H        -6.9817576257       10.1145605294       -4.5292082634
 H        -6.4366776862        6.3547913465       -6.3044407330
 H        -6.1942129971        5.7375028284       -4.7502488686
 H        -5.1168995430        6.9388872958       -5.4651485968
 H        -7.0781214140        4.8166696810        0.9877722771
 H        -6.0713858123        3.3581285944        0.9428383963
 H        -7.7714023263        3.1450300709        1.1469806921
 H        -6.0918120722        5.6314857375       -1.4635496644
 H        -6.0440671647        4.4180834497       -2.7845326782
 H        -5.1169545032        4.2615400965       -1.5598889776
 H       -12.4798688596        0.7959236564       -1.7947042752
 H       -13.4072022855       -0.0888102837       -0.8128496585
 H       -12.0031939862       -0.7605038161       -1.3321520619
 H       -11.5304786844        2.8667944218       -0.2358486886
 H       -11.8168084237        2.4743352420        1.4253990408
 H       -13.1945409668        2.3576816692        0.3033748236
 H        -9.6817270008       -5.3385616540        3.7582501850
 H        -9.7849068272       -4.4243032814        2.3298697210
 H       -11.0207121581       -5.5465286893        2.5066390840
 H       -12.0666465762       -5.0688287877        5.5225021767
 H       -12.9489487053       -4.7303663410        4.0732802555
 H       -12.8758920181       -3.4213225795        5.4140907432
 H        -8.0203924718       -0.1060854387        8.7825779619
 H        -9.6256975800        0.0934248531        9.4509838994
 H        -8.4353583549        1.4354154035        9.4835335951
 H       -11.4921636001        1.8494926300        8.2831039592
 H       -10.9294440047        2.6532580026        6.9496384856
 H       -10.0091673950        2.8674281158        8.4279572401
 Na       -9.6819164438       -0.2891540057        3.5149543008
