117

 C       -12.0635026195        8.2475157938       -3.4566683231
 C       -10.9350579566        8.7033765927       -4.3822959627
 O       -10.4293468742        9.8450098224       -4.3694843940
 C       -10.1214291086        7.5668682905       -5.2545174269
 C        -9.2877544493        6.9181131988       -4.1451034795
 O        -9.5616479420        5.8659000052       -3.5998356770
 C        -8.0789020601        7.8430369006       -3.6521863242
 C        -6.7676884897        7.0713773190       -3.2598780517
 C        -7.0196757975        6.1119636940       -2.0653673821
 O        -7.3727968076        6.6095355032       -1.0162673148
 C        -6.6157255892        4.5730015252       -2.1126794109
 C        -5.7712353063        4.2619017173       -0.7723480125
 O        -4.6022390253        4.0190058865       -0.7842163614
 C        -6.4196269947        4.4926689927        0.5929383872
 C        -5.6470164432        3.8031009330        1.7429870970
 C        -6.5129059920        2.8858801159        2.5299477019
 O        -7.4583322747        2.2725483722        2.0262172309
 C        -6.3047163858        2.7381241391        4.0109895816
 C        -6.9396198911        4.1210147785        4.5781834924
 O        -6.6238672512        5.1942157676        4.1785971101
 C        -8.0881750486        4.1600528347        5.6844772202
 C        -9.3238635195        4.9122082523        5.0712141319
 C       -10.0482700480        4.1520896646        3.9964468637
 O        -9.9501046619        2.9553216210        3.8638765199
 C       -10.9318894007        5.0855689858        2.9360021692
 C       -11.8955611159        3.9884434672        2.3069816045
 O       -11.5244656515        2.9390046211        1.8677525521
 C       -13.3880127551        4.3623633912        2.4202086509
 C       -14.2829672613        3.2369781180        1.7469865130
 C       -14.0608767093        3.1888330257        0.2548449770
 O       -13.3645889777        3.9298222420       -0.3222183756
 C       -14.7528057310        2.0509096354       -0.6191741892
 C       -13.5312796697        1.1659993709       -1.0172907438
 O       -13.2502911130        0.0772517735       -0.4789330287
 C       -12.6014803220        1.6477617150       -2.1178092567
 C       -11.4606186988        0.6073816302       -2.4414847327
 C       -10.3801777743        0.5788664162       -1.3926124187
 O       -10.0283217081        1.6150301809       -0.8011859518
 C        -9.8239993273       -0.7764655672       -0.8693072877
 C       -10.8262038389       -1.1717814030        0.4056999312
 O       -10.6496924783       -0.5968687849        1.4733511719
 C       -11.6853405471       -2.3368763958        0.2187535024
 C        -9.8801226170       -1.7960544129       -2.0400398253
 C        -8.3247964799       -0.5995105597       -0.4100292280
 C       -15.7337743626        1.1172880703        0.0543390817
 C       -15.5174489961        2.6457715587       -1.7982785256
 C       -11.6570364134        6.1448027676        3.7430341465
 C        -9.9291625117        5.7672381171        2.0235896780
 C        -7.1104987156        1.5743983729        4.6911120620
 C        -4.7971504413        2.6339855665        4.5496594959
 C        -7.9689780648        3.8050982092       -2.0865619122
 C        -5.6569624603        4.1347613404       -3.2194231139
 C       -11.0481676984        6.4488653759       -5.8690424496
 C        -9.2594484393        8.3241074479       -6.3212279754
 H       -12.0571494569        7.3700577950       -2.7452512223
 H       -12.9059136641        7.9027217854       -4.0738345866
 H       -12.3381883239        9.0792689981       -2.7853640636
 H        -8.4196344606        8.2572702144       -2.6450766095
 H        -7.8005819704        8.6710270448       -4.4238049478
 H        -6.0334693516        7.7936599531       -3.0112826230
 H        -6.3982881143        6.5210645097       -4.1064796771
 H        -7.4587724278        4.0625336679        0.4536205195
 H        -6.4922822776        5.5332623767        0.7825220312
 H        -5.2461198602        4.4837522382        2.4942073256
 H        -4.7074825931        3.4258609771        1.3546491120
 H        -7.7699562081        4.8902955889        6.4638324039
 H        -8.2672339438        3.1826082325        6.2196229555
 H        -8.9154947973        5.8221376961        4.7128158338
 H        -9.8964721565        5.2629046395        5.9867181877
 H       -13.6366853266        5.3338914867        2.0397550986
 H       -13.6371942891        4.5002647793        3.4575448898
 H       -15.3227337812        3.3586520253        1.9603384310
 H       -14.0238044595        2.3345820388        2.2746344097
 H       -12.2150012863        2.6257703955       -1.8098662396
 H       -13.1942687166        1.7493372558       -2.9995257000
 H       -11.0123760797        0.6896307555       -3.4856433867
 H       -12.1006839749       -0.3809312824       -2.5095751104
 H       -12.2056255767       -2.7650435952        1.0919322017
 H       -11.0403212713       -3.0092514992       -0.2707699392
 H       -12.5193490615       -2.3086943546       -0.4041272122
 H        -9.3915223034       -1.4772597675       -2.9545915006
 H       -10.7976744950       -2.1831697760       -2.4618420378
 H        -9.3712921093       -2.6738638378       -1.6222978246
 H        -8.2434165084       -0.5291273117        0.6301960652
 H        -7.7876945792        0.1637423327       -0.9122043834
 H        -7.7447104852       -1.5495316418       -0.7567331925
 H       -15.2534043496        0.3456539617        0.6688889857
 H       -16.3024847399        0.5361769357       -0.6788335629
 H       -16.4510672723        1.6762164146        0.6107778027
 H       -15.3679716288        1.9289582419       -2.6875358009
 H       -15.3324501453        3.6345724480       -2.0619004547
 H       -16.6416684155        2.6502039615       -1.6306103350
 H       -11.0382946910        6.8833118055        4.1455035395
 H       -12.2197739103        5.8151348640        4.5671895039
 H       -12.4010529416        6.6467366077        3.0934474459
 H        -8.9881996386        6.0482384409        2.5657419374
 H       -10.3569030506        6.7073939200        1.5157406170
 H        -9.5249306071        5.0470134086        1.2948603336
 H        -7.1671773888        1.6966844543        5.7089842089
 H        -6.6519416593        0.6649057016        4.3913099720
 H        -8.0839363900        1.4764104788        4.1254818550
 H        -4.6149629902        1.5963681198        4.5629005202
 H        -4.7972900082        3.0964496674        5.5288971150
 H        -4.0287778392        3.0814752275        3.8946847471
 H        -8.7745792154        4.3846703908       -1.6698404387
 H        -7.8725408751        2.7846605487       -1.6020595764
 H        -8.3215430374        3.6798105642       -3.0770562136
 H        -6.1506607927        4.1244794914       -4.1289753072
 H        -5.2216286637        3.1493103975       -3.0894993253
 H        -4.8335194407        4.8124959787       -3.1554595769
 H       -10.6366258810        5.5134717022       -6.2024478224
 H       -11.5713808816        6.7638292555       -6.7511243976
 H       -11.7269713481        6.1643436731       -5.1049206361
 H        -9.0333806103        9.4272103966       -6.2029260160
 H        -9.5947404577        8.1532474613       -7.3650419503
 H        -8.2961400575        7.7771063362       -6.3030153886
 Na       -9.6276169895        1.6996126298        1.6154405712
