117

 C        -7.5384295040        2.8575167188        6.8997118198
 C        -8.3921771699        1.6124721395        6.6367201019
 O        -8.4628623351        1.2357280782        5.4708739572
 C        -9.4468022384        1.1420455368        7.5903389909
 C       -10.3173990486       -0.0397543023        6.7966059555
 O       -11.3692681711        0.2596442420        6.3490940259
 C        -9.6662275899       -1.4090382926        6.8483839283
 C       -10.5017556952       -2.5307757978        6.3237302529
 C       -10.1017238031       -2.9358345945        4.7811014782
 O        -9.0916755542       -2.4041885532        4.3154482234
 C       -11.0944556056       -3.7269182084        3.9887866767
 C       -11.5827806596       -2.6841327082        2.8318716054
 O       -10.8298644566       -2.5080495141        1.9182103160
 C       -13.0719947734       -2.1786474681        2.6817214403
 C       -13.2095641583       -1.0508534447        1.5776468217
 C       -12.1153628252        0.0725685244        1.6685289243
 O       -11.5409658186        0.3660173053        2.7098304019
 C       -11.8049200128        0.8797738343        0.3693372659
 C       -10.1961075618        0.7525406433        0.2439391853
 O        -9.5127699214        0.3041993069        1.1041341802
 C        -9.5436933431        1.4601662810       -0.9378052145
 C        -8.0782707333        1.1422615628       -1.0932068104
 C        -7.2511133385        2.3393294769       -1.6798545228
 O        -6.4541715546        2.0304850333       -2.5201122883
 C        -7.1636011780        3.8467127383       -1.0207689189
 C        -8.6994043020        4.6180488387       -1.0669187412
 O        -9.5803714377        4.2106638149       -0.3608027911
 C        -8.7311923541        6.1018785331       -1.5144209723
 C        -8.6049227442        6.4480915905       -3.0073227965
 C        -7.3696307490        7.4690347676       -3.3234133417
 O        -6.5723251371        7.8234553229       -2.5052273278
 C        -6.9897882437        7.7144510107       -4.8689718099
 C        -8.2487624280        7.6798651412       -5.5754997016
 O        -8.7082539065        6.6334398471       -5.9732181951
 C        -9.0903518199        8.9945036264       -6.1442669646
 C       -10.2544553499        9.6512366253       -5.3416647785
 C       -10.8076330145       10.8826606169       -6.0661911775
 O       -10.0486255009       11.5253770774       -6.7473995909
 C       -12.2310022094       11.4655145012       -5.5471568980
 C       -13.1778731997       10.1503376649       -5.4531598069
 O       -13.7541585716       10.0389148411       -4.3735536590
 C       -13.2521145811        9.2114378315       -6.5596144556
 C       -11.9732202849       12.0353462049       -4.1566432688
 C       -12.9179937372       12.6054663773       -6.4541413089
 C        -6.2316425016        9.0148065412       -5.2298140397
 C        -5.9911088696        6.5969778720       -5.2258820384
 C        -7.0313190785        3.5891974524        0.4493028617
 C        -5.9223450624        4.5188333210       -1.5807365546
 C       -12.3869037100        0.1641609756       -0.9109662396
 C       -12.2448936447        2.3810763727        0.3586798189
 C       -10.2745389286       -4.9457568933        3.5200602116
 C       -12.3888683247       -4.2918894480        4.7174809405
 C        -8.9256165645        0.4858805870        8.8508448827
 C       -10.4093094622        2.3246704649        7.9583179884
 H        -7.3300739851        2.9791903272        7.9666398182
 H        -8.2594727854        3.6203616773        6.5141281848
 H        -6.6003323897        2.7763582443        6.2728042953
 H        -9.5416233877       -1.6402062670        7.9334405542
 H        -8.6385434780       -1.6089560846        6.4604508222
 H       -11.5635717797       -2.0712786152        6.5649653770
 H       -10.4199885869       -3.4712465978        6.9476426945
 H       -13.6125669469       -1.6728627944        3.5015688706
 H       -13.5719903804       -3.0921393500        2.3687909282
 H       -14.1024528310       -0.4364743698        1.7587674546
 H       -13.2964223334       -1.5001322943        0.5627460130
 H        -9.6543436708        2.5204791333       -0.9458127498
 H       -10.0684009124        1.2244754866       -1.8449711553
 H        -7.9166638182        0.2839429684       -1.7197113024
 H        -7.6852220028        0.8858132596       -0.0889110354
 H        -7.9599016395        6.6225782096       -0.8477109063
 H        -9.6229256272        6.5632846446       -1.0688406996
 H        -9.5860811609        6.6598006838       -3.3789678019
 H        -8.2495866880        5.6617153135       -3.6888075864
 H        -9.5057203301        8.5840435999       -7.1312520550
 H        -8.3097427965        9.7335489167       -6.2789775988
 H        -9.9945370599        9.9834329299       -4.3173421678
 H       -11.0145033928        8.8865032098       -5.3406717488
 H       -13.1990928481        8.2502864614       -6.1206144646
 H       -12.3895526965        9.4780844511       -7.2015291206
 H       -14.1182636214        9.2851692283       -7.1948479164
 H       -10.9904507772       12.4558927426       -4.2354422328
 H       -12.0439493315       11.2675162590       -3.4452715790
 H       -12.7195092429       12.8652032705       -3.8960463115
 H       -13.5690471631       13.2486631719       -5.7856627691
 H       -13.3313797956       12.1546822670       -7.3564005512
 H       -12.2449633821       13.2986139853       -6.9397430112
 H        -5.6949386639        8.9440517221       -6.0472792495
 H        -5.4992533216        9.3355324354       -4.4546625370
 H        -6.8733397066        9.8623760514       -5.4182272413
 H        -6.2049614211        6.0970489128       -6.1486354942
 H        -6.1222880184        5.7969638287       -4.4694360344
 H        -4.9861882952        6.9374344953       -5.2145149441
 H        -6.6197793300        4.5352001941        0.8444871099
 H        -6.4317264294        2.6242094102        0.8500183649
 H        -8.0521036380        3.4295344073        0.8567749871
 H        -5.7323444963        5.4707713314       -1.1190253364
 H        -5.8687343801        4.6189239113       -2.6203340441
 H        -5.0678764175        3.9833310092       -1.5100148457
 H       -12.2268363527        0.7849524965       -1.7626666365
 H       -13.4016592161       -0.1836187528       -1.0598384789
 H       -11.8188037421       -0.6732316407       -1.2050849817
 H       -11.7279320529        2.7881972330       -0.5287570434
 H       -12.0072209474        2.9663056001        1.2121001589
 H       -13.3715996815        2.3285315285        0.2293848838
 H       -10.1156980552       -5.4972660937        4.5073669440
 H        -9.3315323589       -4.7925557447        2.9684469172
 H       -10.8331671186       -5.4492308915        2.8607808792
 H       -12.1797887852       -5.1314365773        5.3506522828
 H       -13.1487787368       -4.6005386193        3.8634060742
 H       -12.6750183621       -3.4583243240        5.3147017404
 H        -8.0540491128       -0.2157911050        8.7406504546
 H        -9.7901846330       -0.0483443694        9.2881142841
 H        -8.5959235931        1.2529109464        9.5321623887
 H       -11.0484338462        2.1301860762        8.7535030552
 H       -11.1155256507        2.3599264166        7.1707819137
 H        -9.8398342111        3.2520166256        8.1525302510
 Na       -9.6140176631       -0.3286174004        3.4428394573
