117

 C        -7.2507286408        2.4280473465        7.0327071522
 C        -8.5564566041        1.7426415735        6.6019776400
 O        -8.6780654230        1.4604988610        5.3838833579
 C        -9.5709307958        1.2193092557        7.6986782188
 C       -10.2768427457        0.0390898904        7.0470159550
 O       -11.1729363181        0.0446745803        6.2149924115
 C        -9.7558681196       -1.3524030542        7.3483762199
 C       -10.7356816539       -2.4345874960        6.5702767639
 C       -10.3295282035       -2.6021314101        5.0299829859
 O        -9.3690675550       -1.9092492405        4.6118375763
 C       -11.1745087383       -3.5815280439        4.2088321061
 C       -11.6081650014       -2.6736224952        3.0099330677
 O       -10.7653268179       -2.3746022483        2.1334065875
 C       -12.9754082340       -2.1954661113        2.8732633498
 C       -13.0641934886       -1.2750342874        1.6083910688
 C       -12.1774830657       -0.0612274764        1.7632286746
 O       -11.8865413129        0.4881106355        2.8346810956
 C       -11.8178996221        0.7009107219        0.4923112013
 C       -10.2326003878        0.7855516275        0.2981133171
 O        -9.4839585426        0.4786955431        1.1655822190
 C        -9.7064468462        1.4113026428       -1.0304717066
 C        -8.1734483877        1.2483190854       -1.2643383338
 C        -7.5023238490        2.5591460152       -1.7672768188
 O        -7.1884513954        2.6301749042       -2.9530110957
 C        -7.0908571245        3.6744185926       -0.7962436694
 C        -8.4078607621        4.6806735311       -0.8902597292
 O        -9.3989307570        4.2355071598       -0.3829354973
 C        -8.3784459589        6.0724490695       -1.5810452881
 C        -8.1384002104        5.7729469538       -3.0959495251
 C        -7.4439125257        7.1403269849       -3.8108764914
 O        -7.4285444785        8.1799787957       -3.2244188326
 C        -7.0650459738        7.2843368080       -5.5408476778
 C        -8.6227634932        7.3999881011       -5.9617585868
 O        -9.2393723319        6.3747126551       -6.0690976424
 C        -9.0766495523        8.7447895113       -6.3914007800
 C        -9.7088081884        9.4957498916       -5.2026664138
 C       -10.2728768389       10.7957178418       -5.9154620896
 O        -9.5654170069       11.3734599232       -6.6653155937
 C       -11.7773790735       11.4710850110       -5.4384842146
 C       -12.8973406584       10.3127910230       -5.4904956538
 O       -13.3886332484        9.9998573920       -4.4604787907
 C       -13.3504614188        9.5906070117       -6.7788061546
 C       -11.6645916893       11.7740206661       -3.9370545088
 C       -12.1208354164       12.7376050814       -6.3743842780
 C        -6.1283908867        8.5175656510       -5.7462300795
 C        -6.5774483936        5.9923701644       -6.3298484649
 C        -6.9660738709        3.6918624286        0.8188701855
 C        -5.7487312773        4.3369142760       -1.2588307393
 C       -12.5967499844        0.1402159701       -0.8361815663
 C       -12.0711322391        2.2966406341        0.7039039064
 C       -10.4351405104       -4.7467165777        3.4705842193
 C       -12.3871670207       -4.1690006445        5.0810488324
 C        -8.9150947556        0.7291993027        9.0559297949
 C       -10.8243233692        2.1604633999        7.8438462443
 H        -7.3565903727        3.4598066375        7.3924285375
 H        -6.7416136511        2.5643052390        6.0451849850
 H        -6.7025910805        1.7278866242        7.6754483905
 H        -9.6273237379       -1.7242403866        8.4048968027
 H        -8.7391061809       -1.5489164367        6.9222915706
 H       -11.7747075088       -1.9331742350        6.6851492392
 H       -10.5197206172       -3.4083077299        7.1211089840
 H       -13.2213849495       -1.6755399746        3.8409970431
 H       -13.6866709041       -3.0224881597        2.8434752392
 H       -14.1210881907       -0.8625555145        1.5405260841
 H       -12.9994932862       -1.9226621464        0.7252609933
 H        -9.8372863259        2.4986341737       -1.1025440659
 H       -10.2830066761        1.0900369425       -1.9063295254
 H        -7.9817747495        0.3249500873       -1.7161543490
 H        -7.6044993535        1.1119418450       -0.3048891192
 H        -7.7109870104        6.8575659267       -0.9978250855
 H        -9.3732090017        6.5010851718       -1.4422972443
 H        -8.8952757530        5.6584200448       -3.8371517142
 H        -7.3033325612        5.0318834212       -3.1353313560
 H        -9.6702380991        8.4831527284       -7.3431538215
 H        -8.3318150683        9.4310878191       -6.7209106045
 H        -8.8956203909        9.7566102108       -4.5436292805
 H       -10.4542380531        8.8945816742       -4.7372055323
 H       -13.4698942395       10.3467302726       -7.4931608911
 H       -14.3068246847        9.0115613586       -6.6229076525
 H       -12.6354691570        8.8479253596       -7.0996942650
 H       -11.1603968996       12.7186843123       -3.7818304230
 H       -11.0523595383       11.0466089265       -3.4212542349
 H       -12.7191279446       11.8334675530       -3.6497625480
 H       -12.7724936176       12.2370196989       -7.1386224382
 H       -11.1540014393       13.0087538559       -6.8284246867
 H       -12.6799763083       13.6235594593       -6.0374684951
 H        -5.6800974644        8.6909298905       -6.7610997418
 H        -5.2032425276        8.2663084986       -5.2432305375
 H        -6.5228031064        9.4558635131       -5.3999892404
 H        -5.5585953277        5.9965278695       -6.4861243543
 H        -6.9950123058        5.7980287515       -7.2864418287
 H        -6.8592923944        5.1671905863       -5.6802392772
 H        -7.2594713646        4.6929845685        1.2680110100
 H        -5.9499071251        3.4600487367        1.1171509612
 H        -7.6539745203        3.0450710394        1.2792421064
 H        -5.4789832471        5.3266477827       -0.9615615695
 H        -5.4209714593        4.2651303858       -2.2612525200
 H        -4.9414319851        3.7849607276       -0.6871403115
 H       -12.5540084135        0.8145328372       -1.6565314468
 H       -13.6365942897       -0.0965603573       -0.6540197919
 H       -12.1959912681       -0.7073334018       -1.3374604275
 H       -11.7302480940        2.7550177419       -0.2084639021
 H       -11.6193626787        2.6062769630        1.5953710056
 H       -13.1800818164        2.4645753879        0.8517334591
 H       -10.0019531049       -5.3591110434        4.1539481241
 H        -9.7778720225       -4.4131183595        2.7184717709
 H       -11.2117863217       -5.4052142595        2.8888213887
 H       -12.1409269931       -5.0584304579        5.7043351858
 H       -13.1733463780       -4.5498406026        4.3050939590
 H       -12.8370168739       -3.3892181695        5.6106290838
 H        -8.0726178834        0.1110203797        8.7552185080
 H        -9.6188588446        0.1391931500        9.6172579987
 H        -8.5935054529        1.5196304993        9.6707153315
 H       -11.4580891875        1.8349870923        8.5869519717
 H       -11.2604951043        2.2488483130        6.8881988155
 H       -10.4881489189        3.1634572617        8.3389724530
 Na       -9.5428409131        0.2791569314        3.5410021124
