117

 C        -7.2577575192        2.3970997201        7.0116080965
 C        -8.5310166781        1.5802598485        6.5512551080
 O        -8.7949761673        1.5513385920        5.3585257045
 C        -9.5920800211        1.0995394693        7.6223845464
 C       -10.1931379127       -0.0998741957        6.9823391486
 O       -11.0826067414        0.1223883713        6.1756276716
 C        -9.8120560638       -1.5782427807        7.4868250353
 C       -10.6629864515       -2.5725181642        6.6995186541
 C       -10.3112582947       -2.5453984158        5.2299722854
 O        -9.4224588396       -1.8430319822        4.7762113607
 C       -11.2304815565       -3.5271162223        4.2255448819
 C       -11.7188038656       -2.6710254888        3.0148821576
 O       -10.8713221755       -2.2345318430        2.2253085801
 C       -13.1726712214       -2.2188903923        2.8650832997
 C       -13.1235544924       -1.2278856098        1.6494890562
 C       -12.2454120574       -0.0137646181        1.8192071352
 O       -11.7373806874        0.2792097067        2.8928936393
 C       -11.7751192798        0.8795505189        0.4664272243
 C       -10.2200637231        0.7912686106        0.2369195490
 O        -9.4534739844        0.5983092866        1.1824507009
 C        -9.7109172847        1.3448817724       -1.0643608651
 C        -8.1744507892        1.3310575687       -1.1884587619
 C        -7.4472786321        2.6446924724       -1.7227135765
 O        -7.4540185129        2.8617093855       -2.9108533621
 C        -7.0170378343        3.7821749614       -0.6816708806
 C        -8.3333726928        4.7405493502       -0.9383230438
 O        -9.3997488084        4.3166034711       -0.4937382207
 C        -8.2351989441        5.9803634489       -1.7204875513
 C        -7.9272938548        5.7481571907       -3.2406728348
 C        -7.5321860193        7.0210312222       -3.9631900969
 O        -7.6622264313        8.0693448554       -3.3437386621
 C        -7.1680234445        7.0645388969       -5.4509026466
 C        -8.6417451975        7.3661810596       -6.1067925886
 O        -9.3421043111        6.3685176409       -6.0634656146
 C        -9.2663973492        8.6724094356       -6.4460895979
 C        -9.8435917065        9.5873403369       -5.2563277433
 C       -10.2261696952       10.9392195706       -5.8720657248
 O        -9.5336230046       11.5196072592       -6.6745278534
 C       -11.5700207364       11.3952444567       -5.4332422202
 C       -12.6663852344       10.3280671229       -5.5608929044
 O       -13.2244544853       10.0124056661       -4.5513639003
 C       -13.2712108676        9.6794385143       -6.8627703187
 C       -11.3695239686       11.7175298705       -3.9271421444
 C       -12.0531174047       12.5552368067       -6.2111430221
 C        -6.2102221202        8.1655489374       -5.9316615836
 C        -6.6276075873        5.9321250061       -6.3694083898
 C        -6.9622719078        3.5133948672        0.7939197040
 C        -5.6354033166        4.2576855274       -1.1681831493
 C       -12.4687436961        0.2852404418       -0.7347570804
 C       -12.0979514523        2.3562941818        0.6689051018
 C       -10.2919306995       -4.8500112758        3.6629475962
 C       -12.2785002957       -4.1695496452        5.0683067661
 C        -9.0228628950        0.9505497499        9.0247409846
 C       -10.7187518466        2.2240300390        7.7407737926
 H        -7.5669047359        3.4663319477        6.7897380887
 H        -6.5060967496        2.3311902037        6.1770231584
 H        -6.8701854429        2.1994277623        8.0127801655
 H       -10.0052207361       -1.9524375867        8.5622469298
 H        -8.7273026843       -1.7555043082        7.3613673737
 H       -11.6070512579       -2.0288129360        6.7995601235
 H       -10.5525065988       -3.5632206524        7.2361760057
 H       -13.4763592093       -1.8181967248        3.8149247799
 H       -13.9341441591       -3.0440154469        2.7088322517
 H       -14.1668304863       -1.0139278222        1.2788915762
 H       -12.7615170432       -1.8226810648        0.8599070936
 H       -10.0800756647        2.3217639364       -1.1877666059
 H       -10.1362986126        0.8524853999       -1.9365156394
 H        -7.9618729137        0.3986859073       -1.6305707791
 H        -7.6678039283        1.1321834628       -0.2130060513
 H        -7.6916148264        6.7235438707       -1.0791837631
 H        -9.2495097385        6.3719906701       -1.7451716684
 H        -8.7308474515        5.4082011092       -3.9195473808
 H        -7.0308445650        5.1992393892       -3.3303339681
 H       -10.0622582069        8.3224622408       -7.1907919720
 H        -8.6577146050        9.3640019402       -7.0930038877
 H        -9.2544604053        9.6075300262       -4.3347344787
 H       -10.8247598109        9.1384317651       -5.1026808273
 H       -14.1526397704       10.2768111498       -7.1681212551
 H       -13.5094019493        8.6655705955       -6.7181056105
 H       -12.4936020114        9.6622803995       -7.6160949397
 H       -10.5994745864       12.4700503481       -3.8617302811
 H       -10.8551425537       10.8528021702       -3.4306113234
 H       -12.2614050958       12.0154566330       -3.5804317377
 H       -12.4189939623       12.3149392791       -7.2222588861
 H       -11.2029068379       13.2991166997       -6.1636628939
 H       -12.9519186848       13.0089112149       -5.6713207519
 H        -5.7808194142        7.9972010619       -6.9863620680
 H        -5.3270013548        8.0588900914       -5.4197715131
 H        -6.4797043837        9.1551220356       -5.8548066953
 H        -5.6571185086        5.6086265960       -6.0455578456
 H        -6.4289184059        6.2596190233       -7.3308088959
 H        -7.3057254971        5.0854467313       -6.4766263313
 H        -6.9372935139        4.4414472004        1.4929289196
 H        -6.1262241236        2.8654116421        1.0666275215
 H        -8.0052862330        3.0266718369        1.0631387231
 H        -5.1916671403        5.1534665056       -1.0172518222
 H        -5.4527568163        4.0553310250       -2.1940049523
 H        -4.9125739693        3.6013726366       -0.6159391739
 H       -12.3849109769        0.9225160046       -1.6016812338
 H       -13.4805852805        0.1064252955       -0.6030704276
 H       -12.0115641925       -0.6030916092       -1.1124638873
 H       -11.7638509168        3.0662047522       -0.0666916328
 H       -11.6976207277        2.4154346028        1.7214132576
 H       -13.1621666458        2.4370172426        0.8844479529
 H        -9.8488958639       -5.5355320346        4.3841932097
 H        -9.5978758391       -4.4452156483        2.8954821229
 H       -11.0028184303       -5.4351175432        2.9819401001
 H       -11.6858210042       -5.0738932354        5.4386453127
 H       -13.0777421086       -4.5613467829        4.5941966540
 H       -12.7192931672       -3.5425648365        5.8988817561
 H        -8.2448788273        0.2177770330        8.9564267051
 H        -9.7688562969        0.6729878375        9.7660468423
 H        -8.6112881350        1.9357173955        9.3265215756
 H       -11.5393116442        1.7349500104        8.2429799236
 H       -10.9263025642        2.6909111426        6.7967337746
 H       -10.4881788021        2.8956092851        8.5141472596
 Na       -9.8126321905        0.4861333758        3.6277390136
