117

 C        -7.1511693722        2.3905234931        6.9264904559
 C        -8.4483723035        1.6781576609        6.5594646396
 O        -8.6945034418        1.7385042437        5.3649930542
 C        -9.6957426467        1.1888165989        7.5285565919
 C       -10.2657494250       -0.1502820851        7.0392546743
 O       -10.9417371747       -0.1335395385        6.0161887384
 C        -9.9219295326       -1.4896908475        7.8370253568
 C       -10.4653333042       -2.8272469035        6.9264741023
 C       -10.5302973179       -2.5438860851        5.3027522500
 O        -9.6187807935       -1.8684715273        4.8168129506
 C       -11.2927406153       -3.4495438280        4.2932156227
 C       -11.6575030011       -2.5717940720        3.0607083552
 O       -10.6894787224       -2.2022200791        2.3957098132
 C       -13.1003258830       -2.1858475088        2.8042687524
 C       -13.3224159804       -1.1719262640        1.6228808380
 C       -12.2651938020       -0.0115370746        1.7149860105
 O       -12.0043033737        0.2547766796        2.8773647098
 C       -11.6998726480        0.9113424307        0.5582519598
 C       -10.1459067428        0.9528446952        0.5073425896
 O        -9.4339033119        0.8534627305        1.4722992697
 C        -9.6017224684        1.0900541787       -0.9523163210
 C        -8.0112269361        1.1986290213       -1.1276054509
 C        -7.5090706487        2.5337224769       -1.7028285923
 O        -7.8476182338        2.8877225986       -2.8228142524
 C        -7.0688861104        3.6714622133       -0.6356016091
 C        -8.1771118408        4.7145842008       -0.9727686753
 O        -9.2967008011        4.7475547147       -0.6011778123
 C        -7.8598039694        5.9607100429       -1.9744455717
 C        -7.5454809772        5.6301553693       -3.4008793122
 C        -7.6554927788        6.9349528129       -4.2854637223
 O        -7.8167059022        8.0024879771       -3.7623277700
 C        -7.3865876626        6.8372428657       -5.7651094406
 C        -8.8937533513        7.0235152212       -6.3451400119
 O        -9.7251197636        6.1770507282       -6.1356698611
 C        -9.2496580843        8.5288492898       -6.9115120648
 C        -9.5510453200        9.4278252119       -5.6892172396
 C       -10.1011681778       10.9078487127       -6.0022482807
 O        -9.4151237037       11.6125290893       -6.6708030366
 C       -11.5342563953       11.4617429890       -5.2463326535
 C       -12.6028639010       10.4106413615       -5.4158781037
 O       -13.0633139033        9.6979466131       -4.5590494090
 C       -12.8137214294       10.1134098867       -6.9026442862
 C       -11.0980543521       11.8103168998       -3.8524386871
 C       -11.9547203563       12.8002446005       -5.9879665953
 C        -6.4709777083        8.0456719064       -6.0264726904
 C        -6.9553868526        5.4497609336       -6.1047625048
 C        -7.0556931650        3.2202853804        0.8742383288
 C        -5.6499687800        4.2887153310       -1.0080379991
 C       -12.4301693521        0.5425529096       -0.8723489153
 C       -12.3082893873        2.3262172536        1.0361426672
 C       -10.0729181423       -4.3520158756        3.8951877181
 C       -12.5220946750       -4.2828128636        4.9591877284
 C        -9.0311706967        1.0144097012        8.9300428379
 C       -10.6497167723        2.4174287116        7.4747101565
 H        -7.0742128659        3.2107793941        6.2499744446
 H        -6.2324875410        1.8563487621        6.7186522115
 H        -7.2555189352        2.6439560370        7.9786741358
 H       -10.4654280760       -1.4657742195        8.7302885528
 H        -8.8770010943       -1.4307956520        8.1152076696
 H       -11.3576185871       -3.0889964375        7.4392280711
 H        -9.6790639848       -3.4799328642        6.8812934748
 H       -13.5056985075       -1.6572346420        3.7138090808
 H       -13.7361091760       -3.0356312723        2.8283019549
 H       -14.3455651970       -0.9668686764        1.7761496941
 H       -13.3614777010       -1.7352077275        0.6522015877
 H       -10.1650764139        1.9663693435       -1.4100372968
 H        -9.9106888824        0.2064644083       -1.5345868865
 H        -7.7921441670        0.3699060328       -1.8573527943
 H        -7.4953659306        0.8163683423       -0.2357860600
 H        -7.1138843614        6.5434338154       -1.4239017887
 H        -8.7798684978        6.5350172303       -2.0088074188
 H        -8.2561630464        4.9496959294       -3.8498765563
 H        -6.4690379406        5.2985650790       -3.4755694370
 H       -10.1058629554        8.5124476359       -7.5513845481
 H        -8.5342789535        8.9901628153       -7.5434919359
 H        -8.6623339232        9.6847937592       -5.0507541045
 H       -10.2597077719        8.7960581012       -5.1157223732
 H       -13.4712107431        9.2603070987       -6.9265945481
 H       -11.7639402097        9.8320143478       -7.3149589444
 H       -13.0094227813       10.9715352879       -7.5593179902
 H       -10.0320074971       12.0609125885       -3.9564212312
 H       -11.0203111615       10.9328289956       -3.2617805187
 H       -11.6872919012       12.6870273833       -3.3684679236
 H       -11.2214677837       12.9580658147       -6.8427330605
 H       -11.8364582554       13.6537539941       -5.3700613888
 H       -12.9543109291       12.7435966288       -6.3473018348
 H        -6.6171817425        8.4306273579       -7.0447853311
 H        -5.3437185662        7.9196707992       -5.8764035314
 H        -6.6670843190        8.8965166483       -5.2988730721
 H        -6.3306414291        4.9266509136       -5.3621899590
 H        -6.3368312681        5.4352717971       -7.0732709251
 H        -7.8362446642        4.8268520270       -6.3851475120
 H        -6.3860793286        3.8600583792        1.4107673698
 H        -6.6283039328        2.2104707706        0.9645023506
 H        -7.9722002328        3.2872970094        1.3221589891
 H        -5.4539279695        5.2567214173       -0.4203069669
 H        -5.5573938404        4.6823661569       -2.0320983727
 H        -4.7560931847        3.7244194058       -0.6948195098
 H       -12.1942871686        1.1814158389       -1.7733385936
 H       -13.5687286710        0.7456964655       -0.7584896945
 H       -12.2928019721       -0.5299603321       -1.2023610589
 H       -12.0727788650        2.9541824807        0.1616132223
 H       -11.9491791602        2.6315265495        1.9844332099
 H       -13.4221792122        2.2453600721        1.0389102975
 H        -9.8998905318       -4.8488755883        4.8166092955
 H        -9.2044131210       -3.8709632002        3.4608497125
 H       -10.4310104702       -5.2080128472        3.2503105181
 H       -12.5389246301       -4.6398701626        5.9504897635
 H       -12.5367575912       -5.2798332152        4.3312010579
 H       -13.4253770111       -3.8330194522        4.7056306618
 H        -8.2833076334        0.1827459494        8.9348358481
 H        -9.8629538673        0.7417653026        9.6029749187
 H        -8.6479760563        1.9422773977        9.3150791697
 H       -11.5684354443        2.1398986206        7.9699997058
 H       -10.6821402026        2.6821164358        6.4130121941
 H       -10.2302047292        3.3548627178        8.1189364163
 Na      -10.0773234960        0.5525768768        3.8761616108
