117

 C        -7.1079498374        2.3536764680        7.0382963507
 C        -8.4334759856        1.8026438721        6.4621347230
 O        -8.6249188936        1.7348496938        5.2325634559
 C        -9.5510043568        1.2755770134        7.4268328167
 C       -10.2281659408       -0.0637030630        6.9721334249
 O       -11.0643093586       -0.0838968992        6.1027260500
 C       -10.0659270603       -1.4072841725        7.7527073156
 C       -10.3983778598       -2.6690778829        6.9310415171
 C       -10.4772896834       -2.4797597934        5.4580432577
 O        -9.6735330631       -1.7713449019        4.8871278817
 C       -11.2709976913       -3.3971930382        4.3855864655
 C       -11.5871836453       -2.5552490467        3.0392485017
 O       -10.6650015501       -2.0996803821        2.3294837900
 C       -13.0650542908       -2.2189399497        2.7598711693
 C       -13.1471766798       -1.2273281787        1.5710741052
 C       -12.3688304565        0.0009701606        1.7829458372
 O       -12.1129684253        0.4556637394        2.9084494488
 C       -11.8981909678        0.8608919854        0.6045549847
 C       -10.1798471398        0.8909046828        0.6115066057
 O        -9.6066229491        1.0524102973        1.6470479024
 C        -9.5149840909        0.9236162606       -0.8172722017
 C        -8.0065688275        0.9672826806       -1.1517851301
 C        -7.6967802022        2.4316892895       -1.6314485282
 O        -7.8341028523        2.6663163935       -2.8101615643
 C        -7.1117191781        3.7144778037       -0.7093321665
 C        -8.1825825797        4.8394631821       -0.8987730221
 O        -9.3103580690        4.8183475813       -0.4179328359
 C        -7.7057447139        6.1550675815       -1.7871042584
 C        -7.5153703299        5.6799949763       -3.2544064415
 C        -7.6962858699        6.8833507952       -4.2027368413
 O        -7.9401656589        7.9679337539       -3.6969844929
 C        -7.5547045772        6.7361247410       -5.8624374058
 C        -8.9593665748        7.0813242220       -6.4298200697
 O        -9.8140279792        6.2492212183       -6.3637785205
 C        -9.3546075272        8.3941913107       -7.0373980982
 C        -9.6036029155        9.3994383227       -5.8210013730
 C       -10.0274247806       10.8716958145       -5.9885022870
 O        -9.4964173985       11.6482699926       -6.7489979849
 C       -11.2178225746       11.4830340244       -5.1906772689
 C       -12.4116130339       10.3337821616       -5.5258454704
 O       -12.8503754818        9.7259368749       -4.5996912016
 C       -12.7587675073       10.1436201298       -7.0226103863
 C       -10.9974888156       11.7873875752       -3.6583859290
 C       -11.7502737415       12.8847315282       -5.8656757436
 C        -6.5423181081        7.6980617824       -6.4064244114
 C        -6.9531166612        5.3661516647       -6.4919871364
 C        -7.1079124704        3.3692679006        0.8270322300
 C        -5.6886819918        4.1149860657       -0.8944926645
 C       -12.3876151766        0.6134129402       -0.7525826057
 C       -12.2522647920        2.2916670520        1.1203194742
 C       -10.1043696751       -4.3607552364        3.9299178584
 C       -12.5441005138       -4.2032604036        4.8441945317
 C        -9.0623693235        1.0170477703        8.9830686257
 C       -10.6945186739        2.3171091823        7.3822304827
 H        -6.5301934834        2.8196597018        6.2574272251
 H        -6.5184445568        1.4144663071        7.1623030773
 H        -7.1874198231        2.7817413655        7.9943084822
 H       -10.7498296015       -1.3095305316        8.6428290527
 H        -9.0821757436       -1.4456181553        8.1302850393
 H       -11.3963893843       -2.9956985420        7.3331807103
 H        -9.4887089970       -3.3398604856        7.0403334656
 H       -13.5418784101       -1.7627807502        3.6381998250
 H       -13.6421640979       -3.1400785834        2.6995272621
 H       -14.2554129895       -1.0649685746        1.3644638213
 H       -12.8230123043       -1.7596219783        0.6813451651
 H       -10.0020942795        1.8899633636       -1.1773074203
 H       -10.0354883739        0.0833222434       -1.3901911846
 H        -7.7317262899        0.2900394496       -1.9126564548
 H        -7.4934872560        0.5480057423       -0.1949333649
 H        -6.6470982965        6.4817074664       -1.3494206140
 H        -8.4358200458        6.9483387883       -1.6934079881
 H        -8.2561504139        4.9090847341       -3.5910407529
 H        -6.4506002034        5.3147893494       -3.3709233907
 H       -10.3010630805        8.3397864815       -7.6353417399
 H        -8.7003829375        8.7827538417       -7.7254269495
 H        -8.6780827697        9.5914069938       -5.2497063229
 H       -10.2451714560        8.8513940726       -5.1441035422
 H       -12.7741949144        9.0672589036       -7.1305545835
 H       -12.1038222465       10.7100611123       -7.7437326982
 H       -13.7210592997       10.6322005123       -7.2214457374
 H       -10.0256739983       12.2231641318       -3.3092387303
 H       -11.0583642286       10.7313581764       -3.1915925824
 H       -11.8419145489       12.3325779433       -3.3494977727
 H       -10.8505049507       13.1738919597       -6.3862871766
 H       -11.9953147239       13.7374667901       -5.2598664161
 H       -12.5252308929       12.6021668966       -6.5766512549
 H        -6.8868143075        7.8202772331       -7.5799951542
 H        -5.5141020125        7.3937500437       -6.3648091662
 H        -6.4472755295        8.6874147961       -5.9586042831
 H        -5.8892571179        5.2385252458       -6.3184813068
 H        -7.1119917026        5.4715503698       -7.5571848934
 H        -7.5124303881        4.3829988246       -6.3036093205
 H        -6.8423258054        4.2876228023        1.3042165477
 H        -6.4759557404        2.6750901541        1.1245813600
 H        -8.1125846319        3.1233459160        1.0991593923
 H        -5.4412038347        4.9225901727       -0.2263467802
 H        -5.3838590759        4.5559281560       -1.8405270700
 H        -4.9038594008        3.3287868749       -0.4981960538
 H       -12.1018847721        1.4481126955       -1.4747472221
 H       -13.4921194609        0.6464293750       -0.8704055097
 H       -12.0053811713       -0.3703577728       -1.1530100112
 H       -11.9834044361        2.9646127178        0.3618954819
 H       -11.6677759320        2.3864025439        2.0365689978
 H       -13.3531103414        2.4066357002        1.2979146058
 H        -9.7690190264       -4.8873419308        4.7301994167
 H        -9.3191551723       -3.8057821221        3.5388147188
 H       -10.4558093473       -5.1788654565        3.1965590141
 H       -12.7050403233       -4.4807985810        5.9685455443
 H       -12.3640123036       -5.1634531773        4.4524381023
 H       -13.5275426258       -3.9366153638        4.5056263268
 H        -8.1812445983        0.3753004569        9.0772838853
 H        -9.9031114157        0.5068994543        9.4364236897
 H        -8.9549220887        1.9061313681        9.5809449678
 H       -11.3315917919        2.0340922079        8.2477900263
 H       -11.1284891116        2.3086130261        6.3809801453
 H       -10.2743683740        3.3388845334        7.5755973169
 Na      -10.0935779634        0.4427541045        3.9543841545
