117

 C        -7.8758298476       -6.8388938463        2.1045419187
 C        -7.8126883435       -5.6591150312        3.0264187940
 O        -7.1960182364       -5.8581993944        4.0500810391
 C        -8.6022737638       -4.3192401756        2.7565668255
 C        -9.8203029788       -4.3934483811        1.7657750082
 O        -9.6875330831       -5.0507828585        0.6904563470
 C       -11.1459655963       -3.6538968069        2.1229038647
 C       -12.0438614932       -3.4819109453        0.9534757035
 C       -12.3703998121       -2.0614174624        0.5161482388
 O       -12.0043669391       -1.6908232336       -0.5758817815
 C       -13.2674096032       -1.1086624856        1.3634872691
 C       -12.3599526200        0.2871044031        1.4308826290
 O       -11.7603042878        0.4945657416        2.4777743314
 C       -11.9770543906        1.0159940037        0.1752783337
 C       -10.4394501003        1.0343473786        0.2220068444
 C        -9.9434906362        2.2251415588       -0.6675168649
 O        -9.6461225661        3.3202743824       -0.1872020221
 C        -9.7050284455        1.9317337147       -2.2345591074
 C       -10.7577103729        2.6791132048       -3.0504583413
 O       -11.8868385540        2.6146868433       -2.5941459542
 C       -10.4106400488        3.4742892454       -4.4805077282
 C       -11.1572786854        4.8256522562       -4.4304357809
 C       -10.8661662919        5.5712624203       -3.1601817668
 O        -9.8760248658        5.3146102411       -2.5345857510
 C       -11.6866187104        6.8054141782       -2.6298604534
 C       -10.7547610582        8.0987372074       -2.2285241278
 O        -9.8159015059        8.0058212221       -1.4298347845
 C       -11.3442625421        9.4639142943       -2.5072338701
 C       -10.2246560658       10.5559868240       -2.2134987769
 C       -10.2336534039       11.0046308903       -0.7650461622
 O       -11.2704937741       10.9123136217       -0.1316290361
 C        -9.0106066331       11.5073645514        0.0375829793
 C        -8.2951895200       10.3849588893        0.8107569118
 O        -7.1151170444       10.1551251366        0.6364210622
 C        -8.9979859838        9.6253927892        1.9742594804
 C        -8.1578554278        8.5547913874        2.5462506789
 C        -8.0120978214        7.4139022323        1.5733925795
 O        -9.0110715838        6.7855468445        1.2787250944
 C        -6.5785522050        6.8110123705        1.2255968998
 C        -6.2116883017        7.1870012377       -0.2592051928
 O        -6.9575853327        6.7359324114       -1.0952920847
 C        -4.9091185913        7.8846980402       -0.6263171690
 C        -5.4611456696        7.3286157283        2.1440726369
 C        -6.6259680155        5.2925216163        1.4369845186
 C        -7.9583150917       12.0838320849       -0.8846780917
 C        -9.3824246709       12.5491480843        1.1256907980
 C       -12.8246958502        7.3073961674       -3.6478701571
 C       -12.3289674157        6.3183920668       -1.2709259560
 C        -8.1764763607        2.3066964743       -2.6524335774
 C        -9.9530363112        0.4916639806       -2.5251758475
 C       -14.5432269306       -0.7512743424        0.5257840454
 C       -13.7924567349       -1.5459186986        2.7279545571
 C        -8.9406771914       -3.8452210921        4.1629911562
 C        -7.6573887515       -3.4143432150        2.0822390057
 H        -7.0372510078       -6.6913786645        1.3863674338
 H        -8.7847484476       -7.2074413642        1.6103759548
 H        -7.5784800027       -7.7010563371        2.7729124466
 H       -10.9327046605       -2.6790338717        2.7168815663
 H       -11.5371522427       -4.2516413862        2.9329095903
 H       -12.9773139878       -4.0380223245        1.1825601339
 H       -11.5972863150       -4.0012516924        0.1519801957
 H       -12.3879425712        2.0845287277        0.1737521951
 H       -12.2862988394        0.5826867840       -0.7774960823
 H       -10.1756336569        0.0387027530       -0.0518220406
 H       -10.0653526134        1.2914606218        1.1974839141
 H       -10.8744031116        3.0181459643       -5.3225632379
 H        -9.3119031268        3.4837600392       -4.6786628319
 H       -12.2238669456        4.6221709191       -4.5601354397
 H       -10.9013935378        5.3883554248       -5.2507688002
 H       -12.1724591989        9.6241157017       -1.7408048623
 H       -11.8239335904        9.5376312795       -3.4701656947
 H       -10.3750939790       11.4830442864       -2.8267285843
 H        -9.1263614012       10.2618005469       -2.4703335578
 H       -10.0462031992        9.2574762432        1.8888970861
 H        -9.0843393404       10.3545643507        2.7473583802
 H        -8.6647616973        8.2007674934        3.4476929105
 H        -7.2088935087        8.9549539376        2.7909473199
 H        -4.9477951354        8.9291776763       -0.4830575346
 H        -4.6752948750        7.6878097455       -1.6428162545
 H        -4.0301625602        7.3802441880       -0.1060240184
 H        -5.5410697438        7.1018345889        3.1585534102
 H        -5.4790925926        8.4149034582        1.9815302767
 H        -4.5014777066        6.8552837640        1.8752961647
 H        -6.6936721785        5.1215056222        2.4864341408
 H        -5.7445230697        4.6858226965        1.0074963301
 H        -7.3755928077        4.7745477014        0.9185243480
 H        -7.0960573627       12.4889076506       -0.3577174774
 H        -8.4309672246       12.8659261175       -1.4856712283
 H        -7.6793225364       11.2409912726       -1.5527201026
 H       -10.4519539353       12.3974972248        1.2268978575
 H        -9.3038335736       13.6488543317        0.7903285661
 H        -9.0691133083       12.5030105911        2.1272571232
 H       -13.5754912227        6.5020155007       -3.6405892313
 H       -12.4647875307        7.5061442898       -4.6522891552
 H       -13.3634523869        8.1056844197       -3.2858974950
 H       -13.0688935823        5.5700490203       -1.4190886469
 H       -12.6938440048        7.1980030343       -0.8172583075
 H       -11.6011005610        5.9277763832       -0.6302453815
 H        -7.7746486749        1.7422441145       -3.5579521062
 H        -7.6399634304        2.2304090402       -1.7014732366
 H        -8.2291180076        3.3751233805       -2.7652736404
 H       -10.9216755086        0.2388215347       -2.1165551310
 H        -9.2973762965       -0.1623239019       -2.0863546217
 H        -9.8978692998        0.3058489439       -3.6157406648
 H       -15.2106792053       -1.6281536553        0.3729624185
 H       -14.3628609307       -0.5139334374       -0.4996288057
 H       -15.1138668479        0.0424023906        0.9811568463
 H       -14.4292280560       -2.4269488715        2.4356964494
 H       -14.4381764042       -0.8503973097        3.2906780947
 H       -12.9231910145       -1.7761874084        3.3621857693
 H        -9.7027685338       -4.4723159538        4.6393704518
 H        -9.2169091317       -2.7785617206        4.2634629433
 H        -8.0349497475       -3.8610318511        4.7673611716
 H        -6.8074762723       -3.2170560032        2.7801497920
 H        -8.0861898820       -2.4017644202        1.7590054883
 H        -7.2336910417       -3.9242126974        1.1776318986
 Na       -9.0799587765        5.7521969648       -0.5919252481
