117

 C        -7.1077839956        2.0879308243        6.8910820798
 C        -8.5257094093        1.7094904418        6.3920577837
 O        -8.7035447812        1.3753178354        5.2131488215
 C        -9.6704401789        1.4223091055        7.4737920254
 C       -10.4796570192        0.1368867620        7.0218021408
 O       -11.3727766593        0.0878107204        6.1866127838
 C       -10.0187444009       -1.1668057114        7.6032527397
 C       -10.7668681978       -2.2702625328        6.8577457709
 C       -10.2409257539       -2.4409016330        5.3861318557
 O        -9.3343286677       -1.7838848145        4.9523894511
 C       -11.0949123759       -3.3538835513        4.3248938931
 C       -11.3349843089       -2.4079327143        3.1595859119
 O       -10.3877635560       -1.8362279261        2.5988313240
 C       -12.6842977242       -2.3134983642        2.5045003483
 C       -12.8219079573       -1.2664020212        1.4353812172
 C       -12.4774900733        0.1960574059        1.9343825616
 O       -12.5089771625        0.4689242091        3.1325008032
 C       -11.9207399494        1.1735580729        0.8027304944
 C       -10.3162181305        0.8918101465        0.8306953678
 O        -9.7078233618        1.1427028013        1.8390727967
 C        -9.6353772841        0.4954155453       -0.5072216035
 C        -8.1308854008        0.9111557396       -0.4815979173
 C        -7.8711560142        2.2453922845       -1.1795610378
 O        -7.8239019638        2.2115675384       -2.4097848349
 C        -7.3120054678        3.6094590860       -0.4903652268
 C        -8.0870750606        4.9427811050       -1.0605642022
 O        -8.9667398192        5.3366034787       -0.3512523862
 C        -7.5361871848        5.8945796520       -2.2386889467
 C        -7.6213398824        5.5279816416       -3.6075388555
 C        -7.8557594334        6.7961284616       -4.4831903472
 O        -7.8079010799        7.9309131133       -4.0282283696
 C        -7.8635936274        6.4978860637       -5.9515147165
 C        -9.2478644807        7.0233928079       -6.6694399311
 O       -10.0877567616        6.2453807827       -6.8996927626
 C        -9.4851509092        8.5158937497       -6.9697837385
 C        -9.3006360777        9.4085120289       -5.7643189838
 C        -9.8032157957       10.8061834344       -6.1340930286
 O        -9.3660360709       11.3637955936       -7.0928965013
 C       -11.0201671151       11.4799757378       -5.2441222400
 C       -12.1224227690       10.5281638947       -5.5720641770
 O       -12.5919244259        9.7449342664       -4.8144072269
 C       -12.8652247383       10.4755066242       -6.9843290336
 C       -10.4645994592       11.3022278344       -3.7816088660
 C       -11.1666687026       12.9770412769       -5.5462296966
 C        -6.6697965994        7.3723964845       -6.5536955888
 C        -7.6555532691        4.9427950554       -6.3794713995
 C        -7.3623639324        3.6244028774        1.0315850299
 C        -5.8333569893        3.5527700055       -0.8331604734
 C       -12.5736667381        0.8361318933       -0.6031242028
 C       -12.1893166063        2.6845272117        1.0744167480
 C       -10.1525074725       -4.5276218226        3.8107376356
 C       -12.3413094485       -3.9972780015        5.0530507553
 C        -9.2293743806        1.2016124632        9.0035196105
 C       -10.5927353164        2.7962589405        7.2881856731
 H        -6.4116062855        1.9377382800        6.0519949736
 H        -6.8688048141        1.4925057090        7.8113674326
 H        -7.1014840678        3.0870887479        7.3408661985
 H       -10.2864050283       -1.0228922886        8.6109562068
 H        -8.9315112026       -1.2291685389        7.5519951204
 H       -11.8075106324       -2.0528074157        6.9011180025
 H       -10.4542501341       -3.1187146769        7.3586149635
 H       -13.4189512218       -2.1425051769        3.3427499984
 H       -12.9857206590       -3.3037027886        2.2602719827
 H       -13.8323063212       -1.2691299232        1.1194215037
 H       -12.2492804508       -1.6990704364        0.6117646516
 H       -10.0442671021        1.0799467260       -1.3229246160
 H        -9.8387209612       -0.5331950141       -0.6070249526
 H        -7.6615306783        0.1938420316       -1.1802527836
 H        -7.7556446497        0.8533460529        0.5951820578
 H        -6.4691781576        6.0382704520       -2.1578574267
 H        -8.0753265366        6.7675782894       -2.0509897890
 H        -8.2630225265        4.6919867290       -3.7310028913
 H        -6.6301444927        5.1742875529       -3.9529741226
 H       -10.5028843581        8.7012561451       -7.3558921335
 H        -8.8236673539        8.8543924685       -7.7296534139
 H        -8.2591338003        9.3088781962       -5.3736128304
 H        -9.8598005201        8.9972267434       -4.8964392791
 H       -12.3421461677       11.0641200348       -7.6841159788
 H       -13.9420805732       10.8095160917       -6.7822309774
 H       -13.0106147361        9.4896322532       -7.3973921068
 H        -9.9929335891       12.2617222648       -3.6675131273
 H        -9.8523754700       10.4143504762       -3.5576096548
 H       -11.2236510485       11.3201094790       -2.9914744172
 H       -11.0416043955       13.5545282534       -4.6116180222
 H       -12.2126041274       13.1465486863       -5.8146348580
 H       -10.6771157048       13.1792438473       -6.4782697904
 H        -6.4966082990        7.1131212273       -7.7060277854
 H        -5.8153500677        7.2771788439       -5.9530653120
 H        -6.9484241591        8.4104167240       -6.5468554359
 H        -6.8682790261        4.8940228090       -7.0750816883
 H        -8.5871261788        4.5583881142       -6.8077822373
 H        -7.3718873674        4.2381576394       -5.5467454493
 H        -6.6106642286        4.3450652710        1.5501067259
 H        -7.1405130264        2.6269666527        1.3451749140
 H        -8.4475193029        3.7629710849        1.2772646991
 H        -5.2243113075        4.3190883509       -0.3886256527
 H        -5.6639393348        3.5059062100       -1.8891646741
 H        -5.4599844603        2.5163336469       -0.4569524670
 H       -12.2359532212        1.6286039666       -1.2767120005
 H       -13.6750525496        0.9826161216       -0.5557221149
 H       -12.3865825517       -0.1829089863       -0.8972737215
 H       -11.5828944381        3.2043346106        0.3498239989
 H       -11.8303918040        2.9073968655        2.0548140993
 H       -13.2672523790        2.9166085958        0.7903377067
 H        -9.8689753073       -5.0338674257        4.6753797335
 H        -9.1950369085       -4.1156676807        3.4357625106
 H       -10.6677807783       -5.3895321455        3.1315572235
 H       -12.1810674499       -4.8620608031        5.7236132772
 H       -13.2699685258       -4.1136451723        4.4966742010
 H       -12.6523328413       -3.3274671405        5.7843944573
 H        -8.7296274317        0.2103611365        9.1273980892
 H       -10.0495719314        1.3671113551        9.7154224733
 H        -8.4526983561        1.8997781838        9.2495292308
 H       -11.4686476789        2.7283212641        7.9062548846
 H       -10.8182217510        2.9649043285        6.2458875298
 H        -9.8224888783        3.6252083031        7.4533234963
 Na      -10.2084354620        0.4149730534        3.8076916468
