117

 C        -7.0061349154        1.8605313608        6.7724274341
 C        -8.4036721193        1.5461590295        6.3468783102
 O        -8.5705999569        1.0217267351        5.2689223548
 C        -9.6658617247        1.8484849444        7.2653780223
 C       -10.8517843867        0.6877631811        6.8795699102
 O       -11.8920256384        0.9523759048        6.3067417310
 C       -10.5073694534       -0.8135400428        7.4175383593
 C       -11.2131712295       -1.8838304062        6.7196604606
 C       -10.4049220548       -2.3872877119        5.5624417794
 O        -9.1921985096       -2.0350798531        5.4851283189
 C       -10.9438917810       -3.1888544608        4.4170091057
 C       -11.1941820501       -2.0749406366        3.2307451125
 O       -10.5019704059       -1.0866468489        3.1043410586
 C       -12.4127753321       -2.2962659637        2.4278353669
 C       -12.7610916628       -1.2418994936        1.3216134380
 C       -12.6285593358        0.0986118293        2.0330293797
 O       -12.8033240038        0.2582955519        3.2144191238
 C       -11.8493058875        1.3437549733        1.0913042992
 C       -10.3657418604        0.9853906322        1.2572325253
 O        -9.7367005309        1.6030966421        2.1351054169
 C        -9.4652250996        0.2072406283        0.2274658488
 C        -8.1721147182        1.0558398806        0.1769291667
 C        -8.3620872626        2.3423809066       -0.6360850309
 O        -9.3025740237        2.4284151770       -1.4185243144
 C        -7.2953407879        3.5824404450       -0.4193393961
 C        -7.6748766947        4.7922087770       -1.4487821216
 O        -8.3000001789        5.7560411727       -1.0451400136
 C        -7.2598987333        4.6614682977       -2.9230356353
 C        -8.3363165915        5.3642010109       -3.7510750026
 C        -7.7947248459        6.0527971378       -4.9147216195
 O        -7.1485319158        7.0615564407       -4.7777590214
 C        -8.0753174567        5.7216352057       -6.5158096260
 C        -9.2455132275        6.6521214021       -6.8541940318
 O       -10.3478036357        6.2715827305       -6.5149680729
 C        -8.9679804463        8.0714540482       -7.2457431542
 C        -9.5476122741        8.9106149943       -6.0717548475
 C        -9.6615270147       10.3786909119       -6.4042864988
 O        -9.4375213390       10.8702025072       -7.5051017165
 C       -10.2287787778       11.4334364559       -5.3488005882
 C       -11.9010945554       11.0518488863       -5.3561741267
 O       -12.3334861926       10.1307399004       -4.6967549230
 C       -12.8211242529       11.6609803668       -6.4095458813
 C        -9.7583742935       11.0953607886       -3.8197117809
 C        -9.9694476853       12.8606307526       -5.8000011695
 C        -6.7230685078        5.9841825283       -7.2382653436
 C        -8.6423646320        4.3096851182       -6.7182849186
 C        -7.5257994649        4.0126207356        1.0178933493
 C        -5.8244576059        3.0862454000       -0.7639992214
 C       -12.4964401726        1.2651587000       -0.3370677682
 C       -12.4475679691        2.7024464779        1.7340122162
 C        -9.7838311109       -4.1234302885        3.7430431409
 C       -12.1865778444       -4.1647804388        4.7697867857
 C        -9.4467517255        1.9176293722        8.7950002819
 C       -10.0360809249        3.1866959581        6.6353641895
 H        -6.3217657062        1.6169526551        5.9997354968
 H        -6.7411427104        1.4153635513        7.7332712666
 H        -6.9370458099        2.9265916828        6.8569720929
 H       -10.9046174718       -0.6329509605        8.4034196869
 H        -9.3876841997       -1.1060403292        7.5342998177
 H       -12.3250806506       -1.7408179459        6.3681927450
 H       -11.3588117347       -2.7651956115        7.3940157229
 H       -13.2771141066       -2.2823088845        3.1352975910
 H       -12.3477938783       -3.3362557079        2.1373587919
 H       -13.7850324522       -1.4243928403        1.1239979523
 H       -12.0724421073       -1.3991013584        0.4373230158
 H        -9.9532071716        0.3218910505       -0.7561515064
 H        -9.1871267634       -0.8774804783        0.4452461494
 H        -7.4737964273        0.5629783453       -0.5072959624
 H        -7.8063885456        1.1860271552        1.2152760763
 H        -7.2487359350        3.6099650379       -3.2716959064
 H        -6.2706388692        5.1574567171       -3.2101234223
 H        -8.8156669883        6.1954742328       -3.2093362199
 H        -9.2271506881        4.6865560054       -3.9836039367
 H        -9.5464632636        8.3824688461       -8.1352780835
 H        -7.9255892381        8.2396461471       -7.5925999282
 H        -9.1126407438        8.7561153602       -5.1271605372
 H       -10.5416878318        8.4901831786       -5.8423599003
 H       -12.2236379323       12.1518541284       -7.1884517985
 H       -13.3748874129       12.5313126114       -5.9087544424
 H       -13.5928108205       10.9584823130       -6.7526924840
 H        -8.6963576649       11.3825896579       -3.6482776415
 H        -9.9499861841       10.1061770517       -3.3177459594
 H       -10.2970436685       11.8394051662       -3.2333999550
 H        -9.0731315198       12.8152811572       -6.4464372479
 H        -9.7245324149       13.4518531723       -4.9645674107
 H       -10.7499788702       13.2371606190       -6.4368231153
 H        -6.5828617788        5.6643605106       -8.3296456537
 H        -6.0142785829        5.4636096860       -6.6954502546
 H        -6.5258266921        7.0327712638       -7.0843393864
 H        -8.2842105330        3.6873934594       -5.9265670871
 H        -8.2967531757        3.8707509288       -7.7188928420
 H        -9.7690557565        4.4539225601       -6.7357038027
 H        -8.3789683541        3.4461568779        1.3620577180
 H        -7.6577365025        4.9948043564        1.1207525671
 H        -6.6859475325        3.6487509371        1.5544047320
 H        -5.1639750024        3.8367620928       -0.3655663481
 H        -5.6414015788        2.8724440178       -1.8418421766
 H        -5.5392850031        2.0850236656       -0.1969751286
 H       -11.9849901350        2.0211667313       -0.9657678563
 H       -13.6166465692        1.4164421011       -0.2073623048
 H       -12.1766481345        0.3147903313       -0.7966818507
 H       -11.8343566304        3.4883167267        1.3545704756
 H       -12.4810589619        2.6616477055        2.8045134514
 H       -13.4855434122        2.6105653759        1.3697902699
 H        -9.3169517473       -4.7165329391        4.5551754329
 H        -9.0234274391       -3.5986082595        3.1782602068
 H       -10.3543911701       -4.6966814733        3.0343455511
 H       -11.7960788328       -5.1621307479        5.2486335333
 H       -12.9956653659       -4.5011677937        4.1779616746
 H       -12.6314222717       -3.6526600743        5.6179360434
 H        -9.3126056389        0.8387266477        9.0958612696
 H       -10.3112044588        2.2915416383        9.3588627104
 H        -8.5626847800        2.4433653240        9.1089406393
 H       -10.9041881923        3.7526814163        7.0017705087
 H       -10.1539038538        2.9628154655        5.5685589100
 H        -9.1275768943        3.7494975525        6.8670882217
 Na      -10.5287165488        0.8240052027        4.1888341564
