117

 C        -7.0303760345        1.7264287345        6.8776386355
 C        -8.4602599927        1.3959066094        6.3052740556
 O        -8.5244171277        0.9458309307        5.1986810494
 C        -9.6740782138        1.8593613648        7.1848342787
 C       -10.8383028111        0.8378806053        6.9560650044
 O       -11.7087709374        0.9983332400        6.1500582288
 C       -10.6328060785       -0.6249418426        7.5630330297
 C       -11.2420574311       -1.7915904447        6.6974470898
 C       -10.2926556971       -2.2787924053        5.5590563931
 O        -9.1808727730       -1.9659302464        5.4977508514
 C       -10.9599164021       -3.1842059126        4.3662407816
 C       -11.3072664678       -2.1571510435        3.3065589686
 O       -10.5003101895       -1.2443697675        3.2328506999
 C       -12.5769629696       -2.3883810468        2.4342624832
 C       -12.8280904416       -1.2859664386        1.4286148925
 C       -12.5821960871        0.0805863326        1.9924972397
 O       -12.7120224395        0.2584648016        3.1901266574
 C       -12.0764906995        1.2768698855        1.1287608786
 C       -10.3515767641        1.1483013530        1.3072222582
 O        -9.8142187979        1.7309491196        2.2325942170
 C        -9.3670332580        0.3608066540        0.4494474773
 C        -8.0848320351        1.1076941537        0.1687308072
 C        -8.4516762652        2.3689028785       -0.7151360131
 O        -9.4827909583        2.3613195404       -1.3312474776
 C        -7.4586082636        3.5211512794       -0.5156523821
 C        -7.6815808524        4.7663313995       -1.4785326414
 O        -8.0065855084        5.8548214645       -1.0753093604
 C        -7.4442446824        4.5416825481       -3.0511011062
 C        -8.3955080609        5.3914568796       -3.9379222282
 C        -7.7022859225        6.1787406584       -5.0196357484
 O        -6.8335857074        7.0819039071       -4.9472354129
 C        -8.0937585978        5.6427814151       -6.4536019981
 C        -9.3317251441        6.6677551716       -6.7907069860
 O       -10.4710111445        6.2336366089       -6.5333080058
 C        -9.0370149864        8.0677488746       -7.1271291019
 C        -9.7391783459        8.9634101596       -6.0990844905
 C        -9.7126014660       10.4054193451       -6.3957579420
 O        -9.4572151917       10.8219197700       -7.5249259649
 C       -10.2308068734       11.4264917447       -5.4035637357
 C       -11.7349787454       11.1079143200       -5.4389693500
 O       -12.1658092270       10.2698061287       -4.6156472182
 C       -12.8460708351       11.7483191581       -6.3467268156
 C        -9.7376247389       11.0278851207       -3.9734947214
 C        -9.6500898460       12.7222943230       -5.7878345386
 C        -6.8177663062        5.6398944631       -7.3212844464
 C        -8.5929541966        4.0793685001       -6.5997983411
 C        -7.5002586493        3.9655415745        1.0313891078
 C        -5.9787383739        3.0204190194       -0.7544203552
 C       -12.5585877839        1.1575085970       -0.2939825445
 C       -12.2477829205        2.6399820498        1.8274014765
 C        -9.7766463826       -4.1623747183        3.8841449530
 C       -12.1060304010       -4.1287045107        4.5526005874
 C        -9.4538115171        1.9685760948        8.6775715550
 C       -10.1171380031        3.3707558038        6.7135585433
 H        -6.2280060683        1.3742407462        6.2039248935
 H        -6.7973480185        1.4552406758        7.9177956868
 H        -6.9555193527        2.7924894786        6.7164157458
 H       -10.9473239035       -0.5155367215        8.6705835685
 H        -9.5231158176       -0.8022269959        7.5588522479
 H       -12.2112344549       -1.6698318992        6.1909277470
 H       -11.5143374035       -2.6975225992        7.2838245866
 H       -13.5193169599       -2.5847163279        3.0178664227
 H       -12.3210166697       -3.3181432766        1.9398777124
 H       -13.8895713488       -1.3244499319        1.1896067347
 H       -12.1884293301       -1.5510669078        0.5931722672
 H        -9.7497095509       -0.0781437483       -0.4980612872
 H        -9.1074405985       -0.4208265330        1.1647508301
 H        -7.3930454486        0.4575704317       -0.2969145307
 H        -7.7328764075        1.5351572072        1.1930195132
 H        -7.4447290211        3.4349395656       -3.4133154919
 H        -6.4757856281        4.9643944506       -3.3571167488
 H        -9.0837275626        5.9957769316       -3.3506310690
 H        -9.0946248616        4.7406871311       -4.4691877009
 H        -9.1965866153        8.2439179208       -8.2680271482
 H        -7.9834196169        8.2199926744       -7.0510160969
 H        -9.2347501645        8.6875635681       -5.1705577572
 H       -10.7552018530        8.6958878388       -5.8314525570
 H       -12.3981643555       12.7081291903       -6.5767870141
 H       -13.6648672362       11.9022167896       -5.7651293168
 H       -13.2259574758       11.2093596121       -7.2199888589
 H        -8.6961597212       11.3647227664       -3.9220236790
 H        -9.7324280842        9.9396601273       -3.6223308049
 H       -10.2702286557       11.5585155545       -3.2611526279
 H        -8.5875199176       12.6809805546       -5.8748896897
 H        -9.8845228155       13.4872746518       -4.9922112599
 H       -10.0891870093       12.9305064378       -6.7523547835
 H        -7.0046972148        5.6329468176       -8.2720850743
 H        -6.3355963919        4.7021146789       -7.0500948218
 H        -6.1579150019        6.4327368057       -7.0551082738
 H        -7.7418568588        3.4438688824       -6.3286343113
 H        -8.8493290944        3.9543443054       -7.6266718544
 H        -9.5312720085        3.8696633392       -6.0179909879
 H        -7.9297817061        3.1656200024        1.5762903670
 H        -8.0770973915        4.9134447626        1.1300793386
 H        -6.4753935264        4.1211445133        1.4393251208
 H        -5.4675253002        3.9415496664       -0.6318011392
 H        -5.5947939125        2.4029622601       -1.5521497046
 H        -5.7366024393        2.5423697276        0.2077736299
 H       -12.0682683686        2.0629772783       -0.6697916092
 H       -13.6174781119        1.2145102219       -0.3587841811
 H       -12.0457209585        0.3850681994       -0.8353066997
 H       -11.4709242313        3.1975705459        1.3629057742
 H       -12.0188808366        2.4121750198        2.8703121008
 H       -13.2638866799        3.0098353067        1.7846603715
 H        -9.4623297430       -4.7881811497        4.8549587632
 H        -8.9096142574       -3.4675891009        3.6106914716
 H       -10.0390018495       -4.6567687694        3.0144560225
 H       -11.7584301347       -4.9596782565        5.1996946662
 H       -12.3624519972       -4.6984940403        3.7052706164
 H       -13.1305302480       -3.7496604329        4.9102175347
 H        -9.1150424123        0.9918699836        9.0444592979
 H       -10.3388541312        2.2496442508        9.2419893562
 H        -8.6490642005        2.6662295703        8.9106907884
 H       -11.1424404834        3.5223797794        7.1091284563
 H       -10.1217479650        3.4958886092        5.6277986952
 H        -9.5626813222        3.9706770208        7.2818820471
 Na      -10.6249971825        1.0422264397        4.1507181387
