117

 C        -7.0648983108        1.5970669614        6.9852044712
 C        -8.4593060775        1.4943136930        6.3016613844
 O        -8.6074890967        0.8975157035        5.2045740042
 C        -9.6741835111        1.8309066682        7.1741765356
 C       -10.6831068539        0.8029438848        6.7958555929
 O       -11.6264619477        1.0849378633        6.0391176096
 C       -10.6870847673       -0.4936237292        7.5955825405
 C       -11.2960263606       -1.5888594182        6.7190135676
 C       -10.3308895795       -2.2941450892        5.6359120665
 O        -9.1886491806       -1.9245513353        5.5668100707
 C       -10.8679288827       -3.3341602202        4.4588121992
 C       -11.2463694058       -2.2747409767        3.3081012804
 O       -10.6209692847       -1.2570449141        3.0328401342
 C       -12.5846294247       -2.4406537399        2.3906425726
 C       -12.8664189684       -1.2565831877        1.4279736484
 C       -12.4805085680        0.1128519159        2.0987049725
 O       -12.6997016388        0.2845385124        3.3029983565
 C       -11.8126103000        1.2997800542        1.1631229501
 C       -10.2805837441        1.2236926492        1.3768553661
 O        -9.9929433899        1.9369997159        2.3310670326
 C        -9.4028512096        0.2838185849        0.5975146990
 C        -8.1203833123        0.9746832906        0.0602000074
 C        -8.5038037084        2.3844443823       -0.6590666690
 O        -9.5411573666        2.4295169669       -1.2853912235
 C        -7.4559450961        3.5452471448       -0.5056905259
 C        -7.7384234114        4.7328029120       -1.5350368345
 O        -7.7402388582        5.8483828194       -1.0974609188
 C        -7.6283149472        4.4770652694       -2.9871113107
 C        -8.3772745962        5.5562659763       -3.8231140614
 C        -7.6043436869        5.9822025373       -5.1784877434
 O        -6.7918675045        6.8724055835       -4.9804759660
 C        -8.0572043545        5.4220809369       -6.5643403412
 C        -9.3337671316        6.4640656467       -6.7965443124
 O       -10.4931849778        6.1823709019       -6.6266926976
 C        -9.0095620489        7.9563486523       -7.0028481773
 C        -9.8330843134        8.8547727704       -6.1100018374
 C        -9.7565874970       10.3652103984       -6.6268424787
 O        -9.3904659133       10.6874293315       -7.7051176791
 C       -10.1695755113       11.4792297884       -5.4329519883
 C       -11.6922039806       11.2301332748       -5.2191149538
 O       -12.1384840637       10.3187544101       -4.5377208551
 C       -12.7154072576       11.9698450143       -6.2780397251
 C        -9.6473572805       11.0211157871       -3.9827412509
 C        -9.5199892352       12.8904897744       -5.7307236840
 C        -6.9241464806        5.5209504907       -7.6248247556
 C        -8.5839645392        4.0008623847       -6.4331792240
 C        -7.5962448887        4.1823928990        0.8521540972
 C        -6.0849694943        2.9490815651       -0.8071302180
 C       -12.4304179030        1.1500028136       -0.3010217529
 C       -12.3117156285        2.6329891732        1.8343299527
 C        -9.6677963797       -4.1141992647        3.9708979661
 C       -12.1487290629       -4.1894469939        4.7373737243
 C        -9.3467431916        1.9507452165        8.6707453373
 C       -10.2710764775        3.3489654498        6.7052699444
 H        -6.2612568779        0.9602181271        6.5646154095
 H        -7.2357186085        1.1761054279        7.9982241184
 H        -6.5598706278        2.6273127715        6.9781207776
 H       -11.3337308376       -0.2548604813        8.5141299496
 H        -9.7033510123       -0.6557724214        7.9507585751
 H       -12.1038389629       -1.2317124275        6.1702598605
 H       -11.8407565251       -2.3842559182        7.2171401125
 H       -13.3989342786       -2.2952352645        3.0990978149
 H       -12.6934559740       -3.4836105863        1.9486089676
 H       -13.9383271437       -1.3013205233        1.0962663555
 H       -12.2036713895       -1.4206041578        0.6310057345
 H        -9.8967617212       -0.1677976938       -0.2600262575
 H        -9.2234182588       -0.4942982253        1.3066073650
 H        -7.5923655199        0.2795478202       -0.6782142780
 H        -7.4514294130        1.2830517832        0.8588731396
 H        -7.8877681378        3.4361841778       -3.2435569798
 H        -6.5852480159        4.5870263012       -3.2569163257
 H        -8.4669864781        6.4361897716       -3.1646164406
 H        -9.3842898168        5.2843875730       -3.9638110288
 H        -9.3710878372        8.0649341661       -8.0436154544
 H        -7.9991278978        8.3553688772       -7.1196431113
 H        -9.5635266265        8.5372348977       -5.0494146728
 H       -10.8941762943        8.5611772894       -6.1365457598
 H       -12.7170390653       13.0234924645       -6.2729692592
 H       -13.6540105016       11.4169966350       -6.4233790071
 H       -12.2122365547       11.6782808874       -7.1633691872
 H        -8.5757333446       11.0511151348       -3.9348972572
 H        -9.8446126327       10.0179469153       -3.7557425854
 H       -10.1281199839       11.6333870299       -3.1783154560
 H        -8.5843483562       13.1116619695       -5.2154141420
 H       -10.2506145837       13.6530309722       -5.3527285956
 H        -9.4661613993       12.9487951675       -6.8456076120
 H        -7.4428757078        5.8505244849       -8.5676876958
 H        -6.4319783829        4.5654879204       -7.7502547434
 H        -6.2040680194        6.2112930283       -7.3228767692
 H        -7.7029986143        3.3027702887       -6.4415726922
 H        -9.2675562396        3.8216937963       -7.2057929357
 H        -9.0973298413        3.9105758439       -5.5304675822
 H        -7.5703207119        3.3883845924        1.6369101879
 H        -8.6003499932        4.8084971065        0.8054122558
 H        -6.7571506295        4.9197278689        1.0372468797
 H        -5.3646952574        3.7136701074       -1.1574113831
 H        -6.1505804064        2.1735870245       -1.5593139803
 H        -5.7541670281        2.5494188896        0.0520991803
 H       -12.1951441865        2.0681182705       -0.7518492258
 H       -13.4450004583        1.1741753133       -0.1034387114
 H       -12.0469774740        0.3649146078       -0.9068572697
 H       -11.7358195060        3.3702450065        1.2532860506
 H       -12.1866648988        2.5884825118        2.9242200212
 H       -13.3536779146        2.6756677678        1.6832177307
 H        -9.4611612784       -4.8492343238        4.6692533027
 H        -8.8849893671       -3.3131406262        4.0336153204
 H        -9.6574695876       -4.3887067123        2.8225518873
 H       -12.1755174767       -4.7805770789        5.5695419483
 H       -12.0687664718       -5.0152166913        3.9505496881
 H       -13.1179184373       -3.7954380105        4.4737199142
 H        -8.8259467155        1.1562279108        9.1284464895
 H       -10.1957430574        2.1744032277        9.3032808910
 H        -8.6625479949        2.8196960148        8.7102863279
 H       -11.2555804019        3.3578835051        7.0447117426
 H       -10.2677589736        3.4751091548        5.6706563045
 H        -9.8249071289        4.1129449394        7.4276842792
 Na      -10.7457792403        1.2199568546        4.1375158405
