117

 C        -7.4841873981        0.6191009064        6.7713585612
 C        -8.8194706782        1.1895691530        6.4956110653
 O        -9.0322550098        1.6176413691        5.3688094646
 C        -9.7743916907        1.6235261252        7.6785979566
 C       -11.1635830227        1.0893422766        7.2537814212
 O       -11.6754125657        1.5709500395        6.2763342229
 C       -11.7576844197       -0.2399506440        7.8990556044
 C       -12.0459470116       -1.2672601095        6.7289859434
 C       -10.6355012458       -1.7589964255        6.1425984032
 O        -9.6034392791       -1.2255677454        6.4522743104
 C       -10.6359002507       -2.8870671975        5.0980146347
 C       -11.1348361990       -2.2412754948        3.6746218740
 O       -10.3236338677       -1.7240523815        2.9900130190
 C       -12.6410736205       -2.1411447418        3.2893726442
 C       -12.8966395285       -1.3829078755        2.0413146807
 C       -12.5136733477        0.2275369676        2.2396461583
 O       -12.3900272061        0.6835369958        3.3900932568
 C       -12.2443730158        0.9776330795        0.8799845523
 C       -10.6261502808        1.3344588893        0.9278477080
 O       -10.1883811742        2.0123669599        1.8449779277
 C        -9.8200477012        1.0462316370       -0.3546175406
 C        -8.4974815655        1.6727335558       -0.3166936856
 C        -8.4755373403        3.1687937032       -0.7422716044
 O        -9.4366533070        3.7655161352       -1.0878723797
 C        -7.0466882362        3.8761751565       -0.7838921914
 C        -7.3924037192        5.0061776952       -1.7722747911
 O        -7.3406303035        6.1614687575       -1.4192846021
 C        -7.9768154879        4.6046831395       -3.1808289010
 C        -7.6458101731        5.5938193413       -4.4326013428
 C        -7.4748139655        4.6774160187       -5.6679435159
 O        -6.4431530281        3.9831804309       -5.7700630760
 C        -8.7293961753        4.6532972817       -6.6936853225
 C        -9.7587335929        6.0209065719       -6.5025552555
 O       -10.9217569260        5.8703065444       -6.1009675898
 C        -9.1990193956        7.5433936114       -6.8585763502
 C       -10.1605192560        8.6544950368       -6.5822197337
 C        -9.6741487519       10.0841816374       -6.8746290886
 O        -9.5874726085       10.4520214445       -8.0620472501
 C        -9.3979848815       10.9561609125       -5.6819081253
 C       -10.8288107847       11.5218906908       -5.2845984745
 O       -11.1002814157       11.6224684740       -4.0943489068
 C       -11.8291999564       12.2068360638       -6.3125751182
 C        -8.9022821940       10.3089553912       -4.3328055239
 C        -8.2945590022       12.1286443672       -5.9992512379
 C        -8.0567958999        4.7310166376       -8.1473338354
 C        -9.4816253008        3.4225743622       -6.2648384445
 C        -6.6697587992        4.3670429947        0.6415234745
 C        -5.9962772377        2.9446688020       -1.4584900059
 C       -12.6879382965        0.1837586866       -0.4327481464
 C       -12.9085943022        2.3999635728        0.8655652744
 C        -9.2701764541       -3.5211481636        4.9119306000
 C       -11.7493432545       -3.9686689160        5.5364981414
 C        -9.1689070949        1.2455104906        8.9772603920
 C        -9.7660799137        3.1544643431        7.6360330533
 H        -7.2486753581        0.0666826810        5.8361203782
 H        -7.4149342914       -0.2022459656        7.5112514867
 H        -6.8091940244        1.3927091726        7.0230817683
 H       -12.7158257728        0.0064380383        8.3686336506
 H       -10.9238424985       -0.5807102366        8.6084843422
 H       -12.5069757717       -0.6631635182        5.9474792120
 H       -12.7342329620       -2.0669273219        6.8126682035
 H       -13.1758692336       -1.5243243441        4.0245004041
 H       -13.1305993786       -3.1187975658        3.1581366894
 H       -13.9031086330       -1.3605273767        1.7113730902
 H       -12.3756690969       -1.8400688614        1.1869800944
 H       -10.3661242597        1.1273130074       -1.2791445894
 H        -9.5947630287       -0.0447143880       -0.3422674844
 H        -7.7391456515        1.1535106618       -0.8902141805
 H        -7.9576643162        1.7238253599        0.6380981199
 H        -9.0312677684        4.8351902968       -2.9425084405
 H        -8.0839296945        3.5140066156       -3.5151584930
 H        -6.9148768480        6.3765256537       -4.3700616283
 H        -8.5858554355        6.1240357426       -4.6178033494
 H        -8.8042068980        7.6196274239       -7.8533431942
 H        -8.3810352263        7.8224754865       -6.1283640673
 H       -10.4114500372        8.6037817854       -5.5513248641
 H       -11.1184480966        8.4533291436       -7.1666799699
 H       -12.7989919491       11.7431286626       -6.2248539765
 H       -11.6197134352       12.4840610371       -7.2558507983
 H       -11.8512428157       13.1561583386       -5.7774958323
 H        -8.9546192395       10.9682626073       -3.4951194563
 H        -7.9543262633        9.7052642008       -4.3851161438
 H        -9.6024398140        9.5387969985       -4.0410536162
 H        -8.6708812243       13.0234013449       -5.5107537691
 H        -8.0559277544       12.4417525906       -7.0001333088
 H        -7.4081047734       11.8424287697       -5.4611708630
 H        -8.7150775648        4.6996949547       -8.9098565715
 H        -7.4447268838        3.8162656107       -8.2459584844
 H        -7.4682290378        5.6009067792       -8.3187269804
 H        -8.8330728757        2.5752002519       -6.2898675984
 H       -10.4345456175        3.1373866528       -6.7976316965
 H        -9.7390397884        3.5971873686       -5.1640567222
 H        -7.2388404077        4.0595069780        1.4595586769
 H        -6.7456976536        5.4956587548        0.6602877481
 H        -5.5997805581        4.2067919696        0.8417567860
 H        -5.1180026536        3.4243763015       -1.8031366054
 H        -6.5445960048        2.4964775227       -2.2522087750
 H        -5.6833997100        2.1884900492       -0.7447997766
 H       -12.4048737976        0.9088550599       -1.2248700558
 H       -13.7991993117        0.1785661068       -0.3612463943
 H       -12.3363665007       -0.8423878398       -0.6499717185
 H       -13.0983293702        2.6510832073       -0.1556263481
 H       -12.2744572312        3.1336704316        1.3667715840
 H       -13.9363521934        2.2130322552        1.2799105724
 H        -9.2521607985       -4.2188567196        5.7787221088
 H        -8.4578028210       -2.7238211641        5.0665281524
 H        -9.2682542351       -4.1774103610        4.0340187691
 H       -11.4826694100       -4.6379049689        6.4133347746
 H       -11.8764832319       -4.4925978968        4.6631854657
 H       -12.6683965963       -3.4641003514        5.8314585020
 H        -9.2219221136        0.1291005922        9.1127056141
 H        -9.5997531698        1.6186386402        9.9170615753
 H        -8.1514167267        1.5952331182        8.9455976447
 H       -10.5018679635        3.4124412058        8.4194565904
 H        -9.9679680872        3.5606051395        6.6297821310
 H        -8.8191395937        3.4478444408        7.8667485945
 Na      -10.7548514081        2.7285093004        3.9675526832
