117

 C       -12.1404905046        8.0542448811       -3.8466702456
 C       -11.0095229032        8.4124030759       -4.7660093083
 O       -10.6795054828        9.6167298926       -4.7889362074
 C       -10.2348679551        7.2662603759       -5.3856893271
 C        -9.3970359955        6.8663450925       -4.1789143827
 O        -9.6372938958        5.8552845247       -3.5424812478
 C        -8.2369645303        7.7875481299       -3.9414975896
 C        -7.0698165420        6.8429830321       -3.5417453863
 C        -7.2172739321        6.1056479523       -2.2785147161
 O        -7.7221033965        6.6484908336       -1.3497010099
 C        -6.7991413388        4.5311301532       -2.1527888913
 C        -5.9397877782        4.4356917540       -0.7915243034
 O        -4.8262137410        3.9710434000       -0.7757606989
 C        -6.7116755796        4.8266355144        0.4524213029
 C        -6.0022746169        4.2050567906        1.6464335952
 C        -6.6389172514        3.0022649749        2.3445992796
 O        -7.5487058341        2.3186317378        1.9098379725
 C        -6.2362072606        2.9366664563        3.9272828242
 C        -6.8680720578        4.2087945529        4.6937781696
 O        -6.3998722736        5.2645929435        4.3970360550
 C        -8.0132900185        4.2198667105        5.7767612654
 C        -9.1480945810        5.1431981656        5.2716935173
 C        -9.7907315752        4.4617224063        4.0431374306
 O        -9.5108983275        3.3171777099        3.7449095910
 C       -10.8209235187        5.2549797480        3.0689842031
 C       -11.7677759381        4.2015012729        2.3352068084
 O       -11.2987738740        3.2960624897        1.7182698275
 C       -13.2985635727        4.4185530786        2.3015650348
 C       -14.0552971799        3.2120842578        1.7861560013
 C       -13.9920476098        3.1815023276        0.2298757749
 O       -13.6765339733        4.1483157115       -0.4208510740
 C       -14.6147994062        1.8449815638       -0.4537419788
 C       -13.3832546475        0.9591910434       -1.0001369876
 O       -13.2128551094       -0.1625601342       -0.5757178724
 C       -12.4241479636        1.6608280687       -2.0504389214
 C       -11.1567035238        0.8381224903       -2.4181017625
 C       -10.3249364730        0.5794534255       -1.1037402081
 O       -10.2035571370        1.4903825663       -0.2637979866
 C        -9.8282410201       -0.7544018315       -0.7162506876
 C       -10.7877907860       -1.2302603141        0.5201005812
 O       -10.8437785032       -0.6045634912        1.5798359373
 C       -11.5001491084       -2.5128371494        0.4756272209
 C        -9.6838515142       -1.8572612026       -1.7880324195
 C        -8.3302726666       -0.5489441802       -0.0619359520
 C       -15.4281872323        1.0127567234        0.5171816470
 C       -15.5584344502        2.3529379796       -1.6151220505
 C       -11.3937271438        6.4594202462        3.6996277639
 C        -9.8537295554        5.5664995176        1.8923799366
 C        -6.7876756352        1.6251321797        4.4222685132
 C        -4.7142586599        3.0340160641        4.0851716962
 C        -8.0677144564        3.6834603151       -1.9919228140
 C        -5.8238986961        4.1405230531       -3.2027679591
 C       -11.2022081548        6.1673716548       -5.8121527604
 C        -9.3699371364        7.7280414645       -6.5433167729
 H       -12.1024945716        7.0111671911       -3.4421471050
 H       -13.1302674983        8.1663346027       -4.2279041739
 H       -12.1060453838        8.5177811631       -2.8843791740
 H        -8.5114567749        8.4322653879       -3.1528316747
 H        -7.8930911845        8.4450353549       -4.7377497030
 H        -6.1747789184        7.4780916882       -3.4028294290
 H        -6.8444946402        6.1925058566       -4.3975479566
 H        -7.7054730059        4.4200623306        0.3076372749
 H        -6.7721369973        5.8781740474        0.5422394684
 H        -6.0028989387        4.9665126248        2.5171008972
 H        -4.9283849954        4.0728054328        1.5628099510
 H        -7.4052067453        4.4561869503        6.6449068319
 H        -8.4376071364        3.2815879830        6.0225590603
 H        -8.8211700476        6.1218425460        4.9095617717
 H        -9.9242692106        5.3061280183        6.0511607167
 H       -13.5886107147        5.2956580867        1.6772793282
 H       -13.7220541884        4.8060551217        3.3071865104
 H       -15.0587489970        3.2086723230        2.1992155494
 H       -13.6148742272        2.3209928885        2.2723401169
 H       -12.0430742500        2.6171458045       -1.7167035185
 H       -13.0323656403        1.8078616974       -2.9738507125
 H       -10.6527454848        1.2292355054       -3.2717414373
 H       -11.5685451578       -0.0933732957       -2.8590973315
 H       -12.2183149673       -2.5883102974        1.3459339875
 H       -10.7937427304       -3.3664904465        0.3990343040
 H       -12.1146459885       -2.7590037351       -0.3769197809
 H        -8.8929722004       -1.5401100730       -2.4274365032
 H       -10.5999986988       -2.1316944353       -2.3956654676
 H        -9.3720968550       -2.8607572567       -1.4513189136
 H        -8.3782280131        0.1619104417        0.7420697008
 H        -7.5908963676       -0.2670631287       -0.7509524337
 H        -8.0185610897       -1.5685654715        0.3493344840
 H       -14.8307452416        0.5988275914        1.3870691801
 H       -15.7324395503        0.1281441355        0.0080434063
 H       -16.2508503649        1.5677560110        0.8862692984
 H       -16.2983656054        1.5991509457       -1.8552710474
 H       -15.0334377388        2.5642924038       -2.4848576603
 H       -16.0769623228        3.2788783118       -1.3569559609
 H       -10.6177456464        7.0870376140        4.1421795538
 H       -12.0793399644        6.1932434878        4.4836722468
 H       -11.9759797317        7.1773316640        3.0463993938
 H        -9.1876831767        6.3599948061        2.1184435914
 H       -10.3426065019        5.7662285559        0.9266644558
 H        -9.3399558375        4.6524247147        1.6729846100
 H        -6.2693797673        1.5165592699        5.3297808901
 H        -6.4447234662        0.7198142974        3.8112668918
 H        -7.9259414223        1.6898031057        4.6636420093
 H        -4.2838212588        2.0370174900        3.8157945114
 H        -4.5364607728        3.1184305358        5.1983530340
 H        -4.3116476500        3.8736453363        3.5259062679
 H        -8.9196310235        4.2997437527       -1.6807489889
 H        -7.9281326624        3.0249480364       -1.1012216269
 H        -8.3449940280        3.1537937666       -2.9149480466
 H        -6.2384264854        4.0841919188       -4.2387526979
 H        -5.3675438065        3.1374423747       -2.9552774300
 H        -4.9102437451        4.7811423843       -3.1331549991
 H       -10.6552476953        5.3784285637       -6.3523661121
 H       -11.9953142079        6.3231664154       -6.6091107222
 H       -11.6268334338        5.6702382604       -4.9204991682
 H        -9.0294133444        8.7336882714       -6.3685431369
 H       -10.1266016359        7.8239176461       -7.3177566182
 H        -8.6552200608        7.1337141529       -7.0435693839
 Na       -9.6663978304        1.5163147080        2.1025897641
