117

 C        -7.3807893985        0.6465052757        6.7251641952
 C        -8.7157076691        1.3237917170        6.3877408306
 O        -9.0151364602        1.6195156716        5.1922251334
 C        -9.7161180640        1.6666047463        7.6974865193
 C       -11.1394719908        1.1826904039        7.1632520813
 O       -11.6786330641        1.7631654219        6.2049467213
 C       -11.9806027275       -0.0423193828        7.7495258682
 C       -12.0633329488       -1.2847831389        6.8267609159
 C       -10.7970841257       -1.6628696253        6.1789537578
 O        -9.7179418565       -1.2216060830        6.5053161175
 C       -10.7676137945       -2.9361595065        5.0877711875
 C       -11.1739052969       -2.1548366601        3.7979116757
 O       -10.3555181344       -1.7722268424        2.9016232308
 C       -12.7081544070       -2.0623691049        3.5328742167
 C       -12.9004673985       -1.3386073685        2.1546961691
 C       -12.4962126799        0.1939389660        2.1797764405
 O       -12.4703504453        0.5908421736        3.3341175836
 C       -12.2260049993        0.9936152574        0.8932242360
 C       -10.7125303736        1.4307953593        0.8713119254
 O       -10.1395371600        2.0057185562        1.8074545294
 C        -9.9321170457        1.1358049740       -0.3410051403
 C        -8.4595483194        1.6208878457       -0.3870103105
 C        -8.4182692796        3.2112277794       -0.6723151475
 O        -9.4682944042        3.8208279335       -0.6816428957
 C        -7.0006828314        3.8904384717       -0.9504289978
 C        -7.2912224860        5.1811921064       -1.9208794776
 O        -7.3978146281        6.2822449694       -1.4436535084
 C        -7.9272437645        4.7438413378       -3.2615515883
 C        -7.4359043191        5.5832401491       -4.5330715090
 C        -7.5560046940        4.6018258999       -5.7757477253
 O        -6.6089558338        3.8559298635       -5.9214690092
 C        -8.7859015131        4.6698993437       -6.6853129757
 C        -9.6500724372        5.9307190024       -6.4401396091
 O       -10.7279886686        5.7859466644       -5.9933101123
 C        -9.2075522366        7.2780760769       -6.9936127536
 C       -10.2257022180        8.4854906026       -6.7228580895
 C        -9.5953901958       10.0133766365       -6.9585891993
 O        -9.5512401462       10.5493222951       -8.0098140924
 C        -9.3439114902       10.9286508621       -5.6081036349
 C       -10.6564100606       11.7470069202       -5.1708649897
 O       -11.0668499723       11.6591092271       -4.0392224379
 C       -11.6221320361       12.1544813579       -6.3335867978
 C        -8.7411810881       10.3529503794       -4.3216998141
 C        -8.3002675536       11.9088039891       -6.1452755668
 C        -8.2590297910        4.7264937062       -8.0930133035
 C        -9.7909456935        3.4582028011       -6.3608985603
 C        -6.5202390628        4.3675892462        0.4789575671
 C        -5.8485790388        2.9590011970       -1.4465010630
 C       -12.7451637501        0.1065404262       -0.3269229987
 C       -13.0430595667        2.3195688243        0.8046869020
 C        -9.2103248367       -3.4557370174        5.1515381992
 C       -11.6877813475       -4.0585851758        5.5563448689
 C        -9.1228464538        1.0543478559        9.0534863321
 C        -9.8343883308        3.2266237903        7.9606011587
 H        -7.2402866916       -0.0310560961        5.8572142054
 H        -7.2754808859       -0.0464712374        7.5968356460
 H        -6.5859131824        1.4065120461        6.8254777519
 H       -12.9987742991        0.2727378907        7.8123901621
 H       -11.4949101813       -0.3182786744        8.6721411564
 H       -12.8757804965       -1.2133144847        6.1351069096
 H       -12.2951243615       -2.1596605359        7.3532413385
 H       -13.2431172684       -1.4154761645        4.2943274118
 H       -13.1274216081       -3.0343386307        3.4595765576
 H       -13.8300136842       -1.3040470666        1.6351530902
 H       -12.2573340101       -1.8304605573        1.3948087655
 H       -10.5030183783        1.6135583704       -1.1716448458
 H        -9.9576594763        0.0946776480       -0.6156361876
 H        -7.9068016984        1.2023096832       -1.1631048918
 H        -7.7264017446        1.5013747291        0.4893725395
 H        -8.9813269334        4.5032072519       -3.1249368579
 H        -7.5009412075        3.8144197797       -3.4884265301
 H        -6.3964917650        5.7551239954       -4.4886135303
 H        -7.8828499172        6.5427657500       -4.7346349596
 H        -9.2848077717        7.2588051980       -8.1097764341
 H        -8.2254985800        7.5873322330       -6.7041917251
 H       -10.7323010515        8.4730260411       -5.7237493730
 H       -11.0085598280        8.2439575354       -7.4992840620
 H       -12.3695098155       11.3985185609       -6.2826969343
 H       -11.1462843580       12.0344049313       -7.3315757655
 H       -11.9577138466       13.1526487180       -6.4019144835
 H        -9.3688773123       10.6531219506       -3.5331417337
 H        -7.7125450650       10.3312752416       -4.0588895102
 H        -8.9406053833        9.2931545222       -4.3397183473
 H        -8.1475463113       12.7649235487       -5.5221569682
 H        -8.4771451512       12.3790718863       -7.1558790822
 H        -7.4057914238       11.3191529007       -6.0924293191
 H        -9.2572250280        4.6637964673       -8.7746197623
 H        -7.6158131352        3.8891074458       -8.3806174465
 H        -7.7815600992        5.6370685447       -8.3913045371
 H        -9.2550266301        2.5134698846       -6.1068204390
 H       -10.3769953561        3.2418872153       -7.2021243241
 H       -10.4873658803        3.7473777907       -5.5548781785
 H        -7.1596714902        4.1493509522        1.3777822636
 H        -6.6454011740        5.5374800577        0.4068853715
 H        -5.4466472628        4.2409042966        0.7328093181
 H        -4.9688603201        3.6345081868       -1.3780143919
 H        -5.9810440318        2.4638547891       -2.4091621016
 H        -5.6022390484        2.2836925350       -0.7619942816
 H       -12.5302179993        0.6389593839       -1.2566052253
 H       -13.7868344848        0.0314025814       -0.1921286726
 H       -12.3010798037       -0.8886242521       -0.3717645445
 H       -12.9449753185        2.6588931932       -0.2247356448
 H       -12.4052775949        3.0508457346        1.3734906795
 H       -14.0798969901        2.2174065032        1.0960065238
 H        -9.0407363175       -3.8144373922        6.0604529812
 H        -8.6390156618       -2.5749612216        5.0206280984
 H        -9.0890239350       -4.3443552613        4.4198872993
 H       -11.2336691276       -4.3983142634        6.4058530810
 H       -11.6520298441       -4.8299004885        4.7824714691
 H       -12.7228689360       -3.7112644166        5.8460950861
 H        -9.0933585572       -0.0201136933        9.2071663578
 H        -9.8301293282        1.3257617672        9.8209897432
 H        -8.2066166476        1.5600589868        9.3243708196
 H       -10.2986317212        3.3767424515        8.8808630336
 H       -10.3579220623        3.6339413945        7.1437708551
 H        -8.7614972969        3.6790883324        7.8351808794
 Na      -10.8229077536        2.5739508670        4.1026354444
