117

 C        -7.2809640442        0.8912903822        6.5934802682
 C        -8.6637688400        1.4162991813        6.3892011207
 O        -8.9135815349        1.8493299120        5.3069630456
 C        -9.8140645517        1.6057463178        7.6164981671
 C       -11.2198947788        1.3771820294        7.0054726593
 O       -11.6160075720        2.1459351840        6.1486176630
 C       -12.1151042102        0.3637302389        7.7409100719
 C       -12.1857564193       -1.1913558414        7.1932826422
 C       -10.8623773649       -1.6431339747        6.3614664331
 O        -9.8777620300       -0.9435558307        6.6112808196
 C       -10.7986429068       -2.8269853196        5.3751987799
 C       -11.2156714482       -2.2122745752        3.9164552115
 O       -10.3722655066       -2.0476091410        3.1249039691
 C       -12.7510866554       -1.8750544305        3.6791026417
 C       -12.9187783891       -1.1664047903        2.3218824880
 C       -12.4740566531        0.2172503797        2.2730897270
 O       -12.4651392885        0.7918647026        3.3552306705
 C       -12.2227514475        0.9018360333        0.8868206139
 C       -10.7554669955        1.4629540591        0.8193361995
 O       -10.2316658498        1.9248972745        1.8035381081
 C        -9.9871236630        1.3594484558       -0.4417608957
 C        -8.5262294755        1.6772399583       -0.5504569160
 C        -8.3392551960        3.2646053761       -0.4619368566
 O        -9.1892334448        3.9276565999        0.0458057729
 C        -6.9274501969        4.0326610275       -0.8307822553
 C        -7.2442211487        5.1564706996       -1.9876262916
 O        -7.2778172796        6.3123326852       -1.6826261553
 C        -7.8172823972        4.7059494155       -3.5001806025
 C        -7.1951527996        5.3014227411       -4.7579122604
 C        -7.6659677765        4.5245935061       -5.9815186683
 O        -6.9102699156        3.5684396652       -6.2005609093
 C        -9.0168120781        4.6478674063       -6.8633041022
 C        -9.7321102514        6.0159494723       -6.4847306690
 O       -10.5800901459        6.2094210823       -5.5601649645
 C        -9.3931246997        7.2812898107       -7.1444223514
 C       -10.2540116362        8.4900887228       -6.5432917118
 C        -9.5147418096        9.7731053643       -6.8544941221
 O        -9.5200466709       10.2317544960       -8.0179175186
 C        -9.2215918453       10.7063943950       -5.6597482038
 C       -10.4410286402       11.5938800920       -5.2982401903
 O       -10.7325122310       11.8546391574       -4.1594294542
 C       -11.2728613539       12.1768244950       -6.4796149626
 C        -8.4906729232        9.8923744665       -4.5098691369
 C        -8.2754177657       11.8192253581       -6.1792430637
 C        -8.4971860012        4.5281967839       -8.3281801146
 C        -9.7960458357        3.4040896520       -6.4718027969
 C        -6.4477069990        4.7386468664        0.4095793052
 C        -5.9740727865        3.0964740006       -1.6782346973
 C       -12.6338987612       -0.0201851036       -0.4588769854
 C       -13.2350512159        2.1797956728        1.0203139394
 C        -9.2296936428       -3.1546863922        5.1397741739
 C       -11.7023100026       -4.1289461937        5.6776398692
 C        -9.4108033153        0.5991429356        8.8092565688
 C        -9.7503479827        3.0742889925        8.0245296568
 H        -6.9413000076        0.1920537915        5.7766700534
 H        -7.2013481071        0.4042610808        7.5792009374
 H        -6.5909904051        1.7129482538        6.7637537315
 H       -13.1627139890        0.6764700212        7.5078951774
 H       -11.8919946084        0.2305087699        8.8833444617
 H       -13.0750571429       -1.2078461601        6.4935054786
 H       -12.4978413718       -1.7937984274        8.1443855168
 H       -13.3882424854       -1.4922879447        4.4187973985
 H       -13.2234683626       -2.8131353040        3.2639304125
 H       -14.0141662212       -1.0529910607        2.0707124747
 H       -12.6042568727       -1.6889722240        1.4272086571
 H       -10.6738321004        1.8720539590       -1.1654934448
 H        -9.8985526768        0.2455111845       -0.7514236422
 H        -8.1672941731        1.4467346501       -1.6320786130
 H        -7.8942907052        1.1695024094        0.1165916263
 H        -8.8410309287        5.0547814784       -3.4680136140
 H        -7.9120842868        3.5902253317       -3.7179003060
 H        -6.1068337507        5.0188568915       -4.8653038751
 H        -7.1763454682        6.4140998381       -4.7423497337
 H        -9.5652689615        7.3280656094       -8.1965976310
 H        -8.3769450721        7.5790814617       -6.7847512871
 H       -10.3967843558        8.4592963771       -5.4680071314
 H       -11.2170468116        8.3726724226       -6.9978640678
 H       -11.9372039843       11.3510673664       -6.9327507523
 H       -10.7483422219       12.6233962385       -7.2970931521
 H       -11.8184922460       13.1261930489       -6.1314616422
 H        -9.1590411155        9.3764660752       -3.7986676706
 H        -7.9916739025       10.6720915021       -3.8295419163
 H        -7.5819715028        9.3303386242       -4.6878254310
 H        -7.2687903226       11.9598390617       -5.6794289438
 H        -8.7891495640       12.7142217285       -5.9394275112
 H        -8.0053195546       11.7173093765       -7.2449263759
 H        -9.1052014312        4.8391044964       -9.0677664329
 H        -8.0837585747        3.5279674685       -8.6406551033
 H        -7.6355212811        5.2629538239       -8.3184738392
 H        -9.2319010181        2.5355387646       -6.4584329430
 H       -10.6043713016        3.1644867911       -7.2427245382
 H       -10.4553725950        3.6032783503       -5.6420972416
 H        -6.8175093947        4.2278551449        1.2530747169
 H        -6.8217938383        5.7163859980        0.5506698377
 H        -5.3538004667        4.7727793855        0.4847139114
 H        -5.0404482042        3.6143802813       -1.8945962464
 H        -6.6043642024        2.8429627362       -2.5538771984
 H        -5.6446834187        2.0387239126       -1.2606073008
 H       -12.6380845190        0.4820274665       -1.4049933259
 H       -13.5538907555       -0.6311300468       -0.4575846188
 H       -11.7612803253       -0.6481218534       -0.4899182600
 H       -12.7863445958        3.0769853783        0.6024791247
 H       -13.2437094228        2.4578713202        2.0670501974
 H       -14.2352653341        1.7888057947        0.6917536380
 H        -8.6575423799       -3.2923808525        6.0921729698
 H        -8.6757816013       -2.4591843899        4.4391738023
 H        -9.3757773843       -4.1502113006        4.7679228060
 H       -11.6095927835       -4.5126474266        6.7887751318
 H       -11.4422319307       -4.9182755036        4.9953812619
 H       -12.6583718966       -3.7392864298        5.4186012291
 H        -9.3201667675       -0.4227556829        8.4300269976
 H       -10.0866282439        0.4865697911        9.6579238053
 H        -8.4634790126        0.8573987156        9.2376480541
 H       -10.2854419727        3.0584833368        9.0435475860
 H       -10.3620933432        3.6621506672        7.2626118287
 H        -8.8160492782        3.4551499944        8.0256710233
 Na      -10.9853976396        2.0020775811        4.1343705193
