117

 C        -7.2610372291        1.1655543394        6.7523645853
 C        -8.7898623064        1.5022098817        6.4455230295
 O        -9.0126562219        1.9579977287        5.3303790920
 C        -9.7641053426        1.5794008980        7.6235760888
 C       -11.2594354871        1.3798272245        7.1381072484
 O       -11.7536480709        2.1381734110        6.3229721711
 C       -12.2656652823        0.3146624943        7.7246462305
 C       -12.1472105799       -1.1798225463        7.1306669006
 C       -10.9073038925       -1.3218661357        6.3085525357
 O        -9.8885945266       -0.6769792507        6.3975822439
 C       -10.8865471513       -2.7020531999        5.4551548112
 C       -11.3784304556       -2.2972277452        3.9665975952
 O       -10.5291083573       -2.0745951068        3.0936977481
 C       -12.8423646797       -1.9813059839        3.7354088676
 C       -13.0170067008       -1.4437392148        2.3065216631
 C       -12.5948830049        0.0894991568        2.2708809382
 O       -12.6583761770        0.6116948967        3.3612951208
 C       -12.3334540704        0.8746753242        0.8891110736
 C       -10.7170779095        1.4652112254        0.8876366249
 O       -10.0597864025        1.8626132624        1.7935415380
 C       -10.1274353385        1.4820563187       -0.4958708471
 C        -8.6787205533        2.0119894531       -0.6198106357
 C        -8.3708912526        3.5352417307       -0.4132890509
 O        -8.9659388173        4.1463211415        0.4871858495
 C        -7.0972773636        4.0948868172       -1.0454852569
 C        -7.4566425966        5.1759769842       -2.2217119421
 O        -7.0514384076        6.3095667757       -2.0968948739
 C        -8.2003978660        4.5540514874       -3.4541812235
 C        -7.3756706274        4.9558923390       -4.7678709782
 C        -7.6692104070        4.2251391402       -6.1000222346
 O        -7.0593239012        3.2797028658       -6.4331779372
 C        -8.9176400035        4.6500966280       -6.8112761290
 C        -9.6337687730        5.8972144087       -6.1804426194
 O       -10.2495520962        5.8279529435       -5.1913026128
 C        -9.5874092141        7.1398805476       -7.0524278953
 C       -10.3462306779        8.5226560269       -6.6569459536
 C        -9.4513515043        9.7267220361       -7.0149175088
 O        -9.3943008448       10.0122937728       -8.1651476367
 C        -8.8507578452       10.7642489564       -5.8992959253
 C       -10.2620116691       11.6625844423       -5.3337765492
 O       -10.4314076302       11.7689652285       -4.1520721879
 C       -11.1712620157       12.1868206903       -6.3896504059
 C        -8.4958845752        9.9375025416       -4.6564105181
 C        -7.7292849304       11.7186005787       -6.2512963338
 C        -8.7873389152        4.7794124761       -8.3745655849
 C        -9.9963415270        3.5654561248       -6.5166178617
 C        -6.2549504489        4.9349811240        0.0212534194
 C        -6.0986354436        3.0414726344       -1.4436214768
 C       -12.5831408250        0.0014661248       -0.3624561659
 C       -13.1600855815        2.2144564832        0.8386141522
 C        -9.4138409644       -3.2386542331        5.4715236342
 C       -11.7624884084       -3.7989797351        6.1055442278
 C        -9.5154013813        0.6386618314        8.7790357437
 C        -9.4757998880        3.0593275091        8.1311492349
 H        -6.7972495858        0.9756626511        5.8051792304
 H        -7.0517727582        0.4547370877        7.5554637076
 H        -6.7628581463        2.0543437512        7.2074399899
 H       -13.2684332577        0.6044468603        7.3984666140
 H       -12.2970749955        0.0872363446        8.7416126792
 H       -13.0028768438       -1.2974879839        6.4950432901
 H       -12.1508138652       -1.9428884378        7.8775816940
 H       -13.0258881487       -1.1716400664        4.5247629792
 H       -13.6100073581       -2.7219235448        3.8162873073
 H       -13.8864139771       -1.7110947753        1.7606001530
 H       -12.2600847285       -1.8888486246        1.6522532884
 H       -10.8449672402        2.1689114539       -0.9763020585
 H       -10.0497915871        0.5317614291       -0.9357827292
 H        -8.3405829870        1.8103226124       -1.5890145352
 H        -7.9844686724        1.6066479737        0.1954972009
 H        -9.2246417218        5.0597957608       -3.6333006633
 H        -8.3584430285        3.4786098903       -3.3624700927
 H        -6.3097952432        5.0169345291       -4.5621695340
 H        -7.6306052887        6.0123425587       -4.8362013778
 H       -10.0698242110        6.7506181733       -7.9761702101
 H        -8.6010330027        7.4899252405       -7.1157571244
 H       -10.6533773267        8.3920927567       -5.5686395588
 H       -11.2040952166        8.6266923800       -7.3375578835
 H       -11.4743856849       11.3075202211       -6.8564809044
 H       -10.7239531017       12.7800928141       -7.2263351711
 H       -11.9157277185       12.7964504841       -6.0068533710
 H        -8.8879283860        8.9155593835       -4.5936694924
 H        -8.7590957514       10.3564957394       -3.7199709550
 H        -7.4015687739        9.9618646537       -4.4828688984
 H        -7.1912387065       11.5027307774       -7.1223878485
 H        -7.0430830333       11.8479298414       -5.4052962577
 H        -8.1930855594       12.6664489397       -6.5312013257
 H        -9.8120498515        4.8042976334       -8.7972968651
 H        -8.4288260028        3.9120888530       -8.7951586320
 H        -8.2176747154        5.6176431232       -8.7959167476
 H        -9.8895371586        2.6060886544       -7.1417266921
 H       -10.9851535499        3.9103426347       -6.5463093743
 H        -9.9957087857        3.3985222872       -5.4425864614
 H        -5.6142307928        4.3638253736        0.7537016735
 H        -6.8368925065        5.5158041224        0.6870927816
 H        -5.5990989264        5.5999711884       -0.4781864753
 H        -5.2243492256        3.4311790607       -1.9408810738
 H        -6.4669350369        2.1804424329       -1.9236009374
 H        -5.8032853630        2.6079116042       -0.5035209504
 H       -12.5395009955        0.5562730347       -1.3447096223
 H       -13.6753478985       -0.2040052611       -0.3428552375
 H       -12.0243497782       -0.9736070439       -0.4431487352
 H       -12.7403154299        2.9210052531        0.1156539011
 H       -12.9316950775        2.7863016947        1.7537209714
 H       -14.1943231341        1.9714831039        0.8160054056
 H        -9.2084959798       -3.5442343270        6.5607245584
 H        -8.9213755661       -2.2979953791        5.3508077041
 H        -9.1214204390       -4.0358569278        4.8333792130
 H       -11.1912709960       -4.1962407999        6.8442281027
 H       -11.8249190162       -4.5751457812        5.3063935979
 H       -12.7897105408       -3.5280386562        6.3536559091
 H        -9.6468527218       -0.4110248482        8.5392183991
 H       -10.1868986600        0.8849446357        9.6295240290
 H        -8.4750470320        0.7328124499        9.1993661391
 H       -10.1884200467        3.4804600329        8.7750979916
 H        -9.3237147666        3.6267323864        7.2385080970
 H        -8.4264036778        2.9978412745        8.6499233978
 Na      -10.6356571752        1.8827077547        3.9697219435
