117

 C        -7.2569192360        1.2829165443        7.0353609902
 C        -8.6279781690        1.6839893747        6.7306107065
 O        -8.9937028747        1.7887950901        5.5275724078
 C        -9.6950124807        1.8358358625        7.7562847623
 C       -11.1154594568        1.4699076925        7.1500714328
 O       -11.4808242113        2.1219273697        6.1706046688
 C       -12.0901518598        0.6128564447        7.8559696400
 C       -12.1213466888       -0.8022049297        7.2481390954
 C       -10.9097560023       -1.3063315413        6.3075298055
 O       -10.1139729373       -0.5365059317        5.8014223268
 C       -10.9979932938       -2.6699249451        5.4856709917
 C       -11.3443695931       -2.3888162533        4.0261334124
 O       -10.4401893193       -2.2196099040        3.2317109595
 C       -12.8655558908       -2.2989970909        3.5870553770
 C       -12.9643148055       -1.4167034900        2.2552203960
 C       -12.4792376704        0.1071379508        2.2863025998
 O       -12.5156668467        0.8289361940        3.3020839716
 C       -12.3059533942        0.8570861386        0.8885417095
 C       -10.7430264774        1.2957733396        0.7715991379
 O       -10.1477674244        1.4818542665        1.8376436392
 C       -10.2817228320        1.8777425399       -0.5622314271
 C        -8.7552525982        2.2315731191       -0.6693593907
 C        -8.3045202739        3.7108541507       -0.2271131755
 O        -8.8997220329        4.3202883002        0.5802567295
 C        -7.1004075705        4.2473251652       -1.0155034044
 C        -7.5414055718        5.0200979677       -2.3383629583
 O        -7.0699450839        6.0923971622       -2.5587070874
 C        -8.2000707214        4.2198977073       -3.4879525342
 C        -7.3140863094        4.5336670489       -4.6736594515
 C        -7.8699912216        4.0391521675       -6.0237913860
 O        -7.2423735283        3.2337892585       -6.7024117922
 C        -9.2304587183        4.4715585790       -6.6263725906
 C        -9.7933040977        5.9227145336       -6.2112812740
 O        -9.9617807634        6.1536966460       -5.0004440786
 C        -9.7111516138        7.2143032696       -7.1125782222
 C       -10.2998281238        8.5074186352       -6.4759428863
 C        -9.3801169019        9.6221801746       -6.9973324823
 O        -9.0680873745        9.9422906721       -8.1548500864
 C        -8.8543559469       10.5938962830       -5.9012184307
 C       -10.0251714745       11.4916540381       -5.3455730418
 O       -10.0972055104       11.7538645527       -4.1481954330
 C       -10.8802547525       12.1826630651       -6.4269304469
 C        -8.2137969409        9.8923825282       -4.7560840558
 C        -7.7755539462       11.4827149798       -6.5997365392
 C        -8.8514571035        4.6798477645       -8.1140819839
 C       -10.3717354647        3.2752232106       -6.7199755409
 C        -6.3481613509        5.2513083713       -0.1380914333
 C        -6.1368506981        3.0915618779       -1.5674687369
 C       -12.7026393030       -0.1073149390       -0.2550505762
 C       -13.0353632932        2.1903049446        0.9380855321
 C        -9.6702929475       -3.3249874255        5.4275883070
 C       -12.0797870375       -3.7455953985        6.1549210567
 C        -9.3896618192        0.9526228670        8.9361462780
 C        -9.8376940497        3.2678784446        8.3544424298
 H        -6.5709141903        1.7546508062        6.2675418378
 H        -7.2817922552        0.1663112413        7.1197497781
 H        -6.9082949166        1.4258702100        8.0399484493
 H       -13.1546011770        0.8638577037        7.9326505908
 H       -11.8978038376        0.4390140724        8.9510888240
 H       -13.0538641863       -0.6362426418        6.6682331520
 H       -12.1593697749       -1.6112376208        8.0494672793
 H       -13.4687292425       -1.8918347342        4.3709604323
 H       -13.2752982064       -3.3346320523        3.3426844381
 H       -14.0027831227       -1.1304835695        1.9174171684
 H       -12.6560736074       -1.8713263485        1.3181748804
 H       -10.7738022022        2.8389374761       -0.5875969563
 H       -10.4617734143        1.1442329469       -1.4032486702
 H        -8.4783938831        2.1486104890       -1.7575701306
 H        -8.1442184083        1.7585238342        0.0340457645
 H        -9.1288912477        4.5533182129       -3.7463029489
 H        -8.2413022253        3.1611918613       -3.2728438423
 H        -6.2387220103        4.4304517786       -4.4634164509
 H        -7.4684778156        5.6171847130       -4.7360419654
 H       -10.1285594233        7.0120559530       -8.0630302035
 H        -8.6325540557        7.4759671068       -7.0361543180
 H       -10.4061857189        8.2186363334       -5.4832541777
 H       -11.2305494329        8.7570483981       -7.0245112566
 H       -11.2191954782       11.5321714789       -7.2974631221
 H       -10.1922484637       12.7870675598       -6.9888268617
 H       -11.6375890547       12.9106174655       -5.9811855124
 H        -8.5100175338        8.8918994289       -4.5417818881
 H        -8.5396443201       10.2981961537       -3.7427056794
 H        -7.1775288021        9.9616795502       -4.7386574745
 H        -8.0991225240       12.4363666729       -7.0927302057
 H        -7.3130656236       10.8568278116       -7.4004041769
 H        -6.9522772705       11.7079658569       -5.9033221158
 H        -9.7071802277        4.8249491693       -8.8441733930
 H        -8.3753658357        3.7034973961       -8.5060527821
 H        -8.1371400886        5.4600290078       -8.2698090587
 H        -9.9893559042        2.5934511370       -7.3961950995
 H       -11.3560917451        3.6709661355       -7.0247527249
 H       -10.6632550942        2.7053062902       -5.8314389791
 H        -5.4784677906        4.7926759470        0.3220366175
 H        -6.8991944113        5.6361746310        0.8099516072
 H        -5.9361857490        6.1636580777       -0.6849958770
 H        -5.1354975713        3.6122048633       -1.6511034478
 H        -6.2683487466        2.8648124712       -2.6798443302
 H        -6.1100644669        2.0970493165       -1.1696889264
 H       -12.8513286053        0.3673364627       -1.1763764928
 H       -13.6824700088       -0.4740164475       -0.0326981832
 H       -12.0683441564       -0.9270077763       -0.4363028288
 H       -13.1816267282        2.5080827623       -0.0989940065
 H       -12.6555054859        3.0905702235        1.4351370757
 H       -14.0392996403        1.8495625151        1.3690882646
 H        -9.4358040706       -3.7965926329        6.2494547350
 H        -8.9014312645       -2.6491460100        5.0225160782
 H        -9.8674504051       -4.1760421651        4.6352957123
 H       -11.7482108509       -3.6089396708        7.2072597899
 H       -11.8974932514       -4.7411760659        5.8861167334
 H       -13.1445255142       -3.5248171756        5.9253795631
 H        -9.3999309059       -0.1237163294        8.6962154515
 H        -9.9044460719        1.1935429236        9.8322207190
 H        -8.3896621443        1.1125898283        9.2104849102
 H       -10.5209059995        3.1110055749        9.2233211980
 H       -10.1874422586        4.0836298038        7.7067967510
 H        -8.8721450194        3.4347758815        8.8297585212
 Na      -10.7809706067        1.8961104376        4.0662544484
