117

 C        -7.1316566795        1.3489336953        7.2302679599
 C        -8.5345392649        1.7768972922        6.6704893685
 O        -8.7100273507        1.8941853445        5.4557366654
 C        -9.7027120759        1.9689153066        7.9481795847
 C       -11.0561719204        1.6064915812        7.2326521053
 O       -11.4259007396        2.1317616371        6.1875737392
 C       -11.9860587640        0.5950037549        7.8504520742
 C       -12.1603059426       -0.8212962672        7.1947006243
 C       -11.1167043071       -1.1614503240        6.0763414367
 O       -10.2650621065       -0.4176876961        5.7190509085
 C       -11.1628153076       -2.6941361223        5.5184171479
 C       -11.3887546819       -2.4011700394        3.9928316737
 O       -10.4328186829       -2.2567372827        3.2393831524
 C       -12.7987380267       -2.2318033363        3.5250251202
 C       -13.0206108883       -1.3275361936        2.2852919449
 C       -12.5471831968        0.0908602728        2.2619300721
 O       -12.4515451745        0.6937035394        3.3055120645
 C       -12.3114402433        0.7758714666        0.8545752612
 C       -10.6842138245        1.4506825388        0.8755753058
 O        -9.9135290910        1.3025829594        1.7726491318
 C       -10.3362220037        2.1062459562       -0.4503273699
 C        -8.7845148238        2.2436916687       -0.6129653799
 C        -8.3327933922        3.6677019758       -0.3073377365
 O        -8.9032863911        4.3355577012        0.5523303774
 C        -7.0802969621        4.2520529595       -1.0161348297
 C        -7.5546696405        4.9674945662       -2.4044521788
 O        -7.1577522904        6.1042530955       -2.5820711740
 C        -8.2469765739        4.1277754143       -3.4913553085
 C        -7.4616697785        4.3905908053       -4.9169591380
 C        -8.0454629036        3.8495549472       -6.1380381588
 O        -7.4025046979        3.0967070641       -6.8235469657
 C        -9.3327777857        4.5405557995       -6.8130300731
 C        -9.6895525135        5.8782719046       -6.1092311779
 O        -9.9180044171        6.1725871246       -4.9677326739
 C        -9.7272540325        7.0933134221       -7.1967326759
 C       -10.2079987889        8.4039643920       -6.5111769173
 C        -9.4351491242        9.6316201887       -7.0371411347
 O        -9.1985262325        9.5052149979       -8.1855437150
 C        -8.6821064629       10.6155127198       -5.9401783821
 C        -9.7900841248       11.6170633437       -5.3120949155
 O       -10.0259131969       11.7157805479       -4.1393087077
 C       -10.6780718077       12.1897545033       -6.4375461744
 C        -8.0209652354        9.7721195998       -4.8029363149
 C        -7.6692003733       11.6709538835       -6.5125994556
 C        -8.8774447533        4.6424542628       -8.2469451143
 C       -10.4520535274        3.4399417407       -6.5838077669
 C        -6.3678517566        5.2402329333       -0.0777195466
 C        -6.0250928082        3.2640453150       -1.4381390899
 C       -12.8058600155       -0.0799504614       -0.3319476548
 C       -13.2459618982        2.0842091131        0.9443110428
 C        -9.7354254849       -3.4502179815        5.5746276515
 C       -12.2395212074       -3.6692572789        6.1607587433
 C        -9.2703505010        1.0206273163        9.1692005262
 C        -9.9974140461        3.4153594337        8.4062338913
 H        -6.3996673303        1.8725658422        6.6465857086
 H        -7.0571224596        0.2434670773        7.2194370524
 H        -6.9233462833        1.4161944373        8.2806775123
 H       -13.0734663393        0.9627449546        7.8709841439
 H       -11.9273390609        0.4092811379        8.9374566407
 H       -13.2744971525       -0.6644521120        6.8248978282
 H       -11.9102103826       -1.6697354893        7.8861292042
 H       -13.4511620844       -2.0172190696        4.3923083403
 H       -13.0675858381       -3.2303753941        3.2461677007
 H       -13.9767882745       -1.3134047611        1.8128751669
 H       -12.4122446939       -1.7029939104        1.4242437275
 H       -10.5907795123        3.1597514018       -0.3427087130
 H       -10.7221615874        1.5212960557       -1.3254749124
 H        -8.5495075920        2.1522991470       -1.6234132555
 H        -8.1450513078        1.7225583663        0.1764905543
 H        -9.3019782913        4.4789475815       -3.4776526889
 H        -8.1943495057        3.0605767758       -3.2381000018
 H        -6.4505374427        3.9743288257       -4.7694590653
 H        -7.2580893011        5.5156866238       -5.0900250231
 H       -10.4340837970        6.8277998439       -7.9429957748
 H        -8.6978390950        7.3309644717       -7.5568423317
 H       -10.1297446493        8.0839892213       -5.4981447094
 H       -11.2594211709        8.4281637355       -6.7617712857
 H       -10.9421727799       11.3814207932       -7.1889081184
 H       -10.0698764768       12.8248385611       -7.2131563486
 H       -11.5220057428       12.7592550886       -6.0393051250
 H        -8.6534857755        8.9507451890       -4.4024475735
 H        -8.2053823954       10.3157956182       -3.8481325780
 H        -6.9641369738        9.4379165685       -4.7995505150
 H        -7.6749067441       12.6939243601       -6.1743071243
 H        -7.8694823426       11.6456874405       -7.6539719173
 H        -6.6720296597       11.1646327779       -6.4600525168
 H        -9.5722197684        5.1773288796       -8.9774813022
 H        -8.7667876724        3.7200566479       -8.6207475554
 H        -7.9591637742        5.1299240355       -8.2961279275
 H       -10.0235782113        2.4123635652       -6.7596931990
 H       -11.3705746636        3.5567353498       -7.0655242009
 H       -10.7280142037        3.4005824926       -5.4880992668
 H        -5.5980305739        4.8332823340        0.5609239766
 H        -7.0496809893        5.7658030913        0.5965238524
 H        -5.9352173817        5.9759661555       -0.6533379500
 H        -5.0323555351        3.8332168668       -1.3342726028
 H        -5.9420022074        2.8508600148       -2.4993925410
 H        -6.0284697911        2.3582925289       -0.8987423820
 H       -12.8857310200        0.6111161615       -1.1581579576
 H       -13.7660388480       -0.4662980461       -0.1762982851
 H       -12.2094012666       -0.8940932910       -0.7057997765
 H       -13.2755258100        2.6017664238       -0.0413373249
 H       -12.6394153568        2.8071876218        1.5884184420
 H       -14.2473808081        1.9177046516        1.3969474973
 H        -9.3200319680       -3.8019581810        6.6361968883
 H        -9.0569797617       -2.7266994643        4.9928223551
 H        -9.8043828031       -4.3722744569        4.9734391322
 H       -12.2352153900       -3.6254845167        7.1899848062
 H       -11.8766977052       -4.6654660687        5.8334783395
 H       -13.2586850472       -3.5717953958        5.6185669435
 H        -8.9809837566        0.0094463839        8.9104738991
 H        -9.9303426287        1.0702725085       10.0028394071
 H        -8.3689996097        1.4626857791        9.5639405515
 H       -10.6796369841        3.3176550030        9.2394413772
 H       -10.5445457792        3.9269318106        7.6394394420
 H        -9.0376804822        3.9865872070        8.8389172264
 Na      -10.8356980015        1.8943957725        4.1147415913
