117

 C        -7.0145135483        1.4834035590        7.2802343618
 C        -8.4396824175        1.9190949386        6.8151318893
 O        -8.5710492236        2.0704121448        5.6566408855
 C        -9.6682945636        2.0052901558        7.9247741451
 C       -10.9677466002        1.4834034089        7.1986329538
 O       -11.3711869105        2.2450119962        6.3504268041
 C       -11.9983089747        0.5091490585        7.8938512848
 C       -12.2183265435       -0.9428025573        7.1580425179
 C       -11.1581329370       -1.2466293189        6.0918227550
 O       -10.4759719290       -0.3445303744        5.6373216362
 C       -11.2433102418       -2.6831045700        5.4629926649
 C       -11.4211759033       -2.3790542678        3.8980333912
 O       -10.4478955550       -2.2820426229        3.2046933689
 C       -12.9309891347       -2.1434171485        3.4096073327
 C       -13.0474003357       -1.5221342160        2.1072467829
 C       -12.5546688139        0.0181804103        2.2617739950
 O       -12.4285979754        0.5280737563        3.3419030770
 C       -12.2223508958        0.9240973505        0.9511803704
 C       -10.7989120730        1.3218320037        0.8577346217
 O        -9.9921385819        1.1481712879        1.7511095636
 C       -10.4332986081        2.2456033308       -0.3660965719
 C        -8.8693409420        2.1913316172       -0.5842084208
 C        -8.2793051396        3.6318866229       -0.2922543768
 O        -8.9584723479        4.3381986423        0.4664481897
 C        -6.9278076599        4.2857156350       -0.9768001531
 C        -7.4381260757        5.0010410392       -2.4714533234
 O        -7.3138886709        6.1823908008       -2.6571198667
 C        -8.2138195584        4.1002907441       -3.4807327080
 C        -7.4645567859        4.3276570841       -4.8976685948
 C        -8.0445130762        3.7452665420       -6.1952756830
 O        -7.5653868378        2.8443037030       -6.8362236640
 C        -9.3161339658        4.5215481000       -6.9539349935
 C        -9.6142491121        5.8757444987       -6.2065279084
 O        -9.8613374505        5.9231776768       -5.0437972585
 C        -9.8684063347        7.0666493332       -7.0817887888
 C       -10.2202518455        8.3878744286       -6.4047820384
 C        -9.1690328648        9.4148764981       -6.9745530068
 O        -9.1598827897        9.5310152827       -8.1868199315
 C        -8.6336418065       10.5316778213       -5.9907564823
 C        -9.7921361019       11.4664909706       -5.4360950166
 O        -9.8961259988       11.6893648102       -4.2431258157
 C       -10.5824337657       12.2733354169       -6.3757989367
 C        -7.8559215447        9.7895242591       -4.8687505956
 C        -7.5829128858       11.6001425763       -6.5725501838
 C        -9.1344893380        4.6060535533       -8.5052226459
 C       -10.5591424052        3.7172134455       -6.4615384746
 C        -6.4795710141        5.3707517416       -0.0120527020
 C        -5.8951566767        3.1774319707       -1.3579548251
 C       -12.6597481461        0.1315188755       -0.2885801890
 C       -13.3620327909        2.0759032129        0.9814004181
 C        -9.8285029191       -3.3876084314        5.8481145753
 C       -12.2985333271       -3.4872159582        6.1030955253
 C        -9.3252983960        1.2436547774        9.1407205894
 C        -9.9155140712        3.4999933132        8.3341418474
 H        -6.3663578440        1.9154881996        6.5704565642
 H        -6.9606193015        0.4368428775        7.4034083287
 H        -6.7135108459        1.7334901911        8.3152917593
 H       -12.9346139129        1.0108441761        8.1344855809
 H       -11.7498524841        0.1968384671        8.8861474998
 H       -13.1553747079       -0.9005726921        6.5987688314
 H       -12.0720613418       -1.7644235489        7.8587801797
 H       -13.4012943601       -1.4082514854        4.1187840883
 H       -13.4777938057       -3.0441204320        3.5729328871
 H       -14.0465936204       -1.5089168841        1.7078941936
 H       -12.4737107410       -1.9377444197        1.2881999809
 H       -10.6225751107        3.3109017513       -0.0711826328
 H       -10.8485499673        1.8675761739       -1.2574288844
 H        -8.6696027980        1.9749373371       -1.6008077246
 H        -8.4439202790        1.5589161959        0.2684981582
 H        -9.2063718798        4.7227305790       -3.4241075705
 H        -8.4070575202        3.0209751985       -3.1843682637
 H        -6.5574216382        3.7157827476       -4.7127843794
 H        -7.1082486912        5.3823889707       -4.9827290044
 H       -10.7463596826        6.8105972543       -7.7559309906
 H        -8.9853072992        7.2356591314       -7.6594914354
 H       -10.0249840256        8.2485206776       -5.2785484940
 H       -11.2355509665        8.5095526524       -6.6394035411
 H       -11.0275855588       11.6896065776       -7.1492236540
 H        -9.9675128873       12.9384228696       -7.0484442284
 H       -11.3190203081       12.8269872837       -5.7851194931
 H        -8.5354439050        9.1137678821       -4.2849462443
 H        -7.4657884978       10.2453868642       -4.0008471125
 H        -7.0273783188        9.1074667647       -5.3324619707
 H        -7.0086648237       12.0937941179       -5.7584069661
 H        -8.1093797689       12.4063321952       -7.0834758474
 H        -6.9227236096       11.1068279469       -7.3211994422
 H        -9.7469127682        5.2871098174       -8.8720868404
 H        -9.2192008778        3.7119578780       -9.0990265807
 H        -8.1497199740        5.0432489590       -8.6782505808
 H       -10.3609869129        2.5966074433       -6.2704843096
 H       -11.3390951837        3.7699040570       -7.2363865911
 H       -11.0314206530        4.0464212706       -5.5275744157
 H        -6.0774080700        5.0707262504        0.9341907801
 H        -7.2754455924        5.9676613905        0.1425869698
 H        -5.7637114368        6.0109783931       -0.4441229122
 H        -4.9509663261        3.5327198064       -1.5861470506
 H        -6.1093449178        2.5055250692       -2.1245522981
 H        -5.9150108471        2.4851963130       -0.4428421375
 H       -12.4608892316        0.7402799968       -1.1823454068
 H       -13.6578096958       -0.3124841002       -0.3215769325
 H       -11.9706518985       -0.7328933087       -0.4578160429
 H       -13.1633190173        2.6999611592        0.0595709312
 H       -13.1420374112        2.7662604849        1.8333944639
 H       -14.3638482330        1.6974277118        1.0219257366
 H        -9.7578978666       -3.2955703447        7.0300136121
 H        -9.0311707806       -2.7802326381        5.3560830285
 H        -9.7222876890       -4.4311014480        5.6019463136
 H       -12.3492836597       -3.4987374315        7.1955263435
 H       -12.1725467904       -4.5278547292        5.6827309706
 H       -13.1663777879       -3.1385487567        5.6211854138
 H        -8.8025798312        0.3325536330        8.9958016937
 H       -10.2816550137        1.1106539389        9.6540884518
 H        -8.7321851136        1.8079037253        9.9057167532
 H       -10.6739700340        3.5386486411        9.1509142603
 H       -10.4136378102        3.9915500612        7.4540525291
 H        -9.0196587712        3.9143725478        8.6857382768
 Na      -10.6896545509        1.8618919035        4.1429446470
