117

 C        -7.0121913572        1.9813653162        7.5265318784
 C        -8.4179414618        2.1467873889        6.8230038855
 O        -8.5853823498        2.2984761169        5.6510690293
 C        -9.6464504938        2.2997718555        7.9315693761
 C       -10.9847278953        1.6368967811        7.3906086635
 O       -11.4243890898        2.0512990482        6.3600597923
 C       -11.8238078935        0.5635911965        8.1942856241
 C       -12.3293076519       -0.5118441763        7.2466392427
 C       -11.3706459827       -1.0760991173        6.0556282819
 O       -10.5807398897       -0.3135164744        5.5449290841
 C       -11.5677861719       -2.4959745466        5.5396031169
 C       -11.6487305696       -2.5275240689        3.8276679763
 O       -10.5458734288       -2.6419082989        3.3001936429
 C       -12.9567230283       -2.4151806922        3.0832185238
 C       -12.8702678821       -1.4610228004        1.9569437274
 C       -12.4253550686       -0.0951465596        2.2040350773
 O       -12.3253535513        0.4435167647        3.2797367830
 C       -12.3822527280        0.7798583556        0.9725028954
 C       -10.7953035178        1.4219936181        1.0865019916
 O       -10.0162999185        1.2657038124        1.9729525125
 C       -10.4774860066        2.3274870808       -0.0412559153
 C        -8.9467998839        2.4094354613       -0.3703391370
 C        -8.4890843294        3.8788286012       -0.3199046273
 O        -9.1507292946        4.7304134048        0.3123393217
 C        -7.0771450941        4.2471144201       -0.9884548024
 C        -7.3835182101        4.8425834840       -2.5794791228
 O        -7.4460045414        5.9912885358       -2.9216736700
 C        -7.7989922438        3.7220591192       -3.7178187695
 C        -7.4710040661        4.3212566512       -5.2272756894
 C        -8.3964312613        3.5961727739       -6.1725351572
 O        -8.2636435342        2.4701240533       -6.5610733330
 C        -9.7203092979        4.3208832988       -6.7810300479
 C        -9.8231058359        5.8433660004       -6.2432582826
 O        -9.4807428381        6.0349403220       -5.1381092579
 C       -10.1490187157        7.1542726413       -7.1532024254
 C        -9.8640362096        8.3812415143       -6.3465238080
 C        -8.9819030780        9.3993320093       -7.0070062690
 O        -8.9939283828        9.4770118130       -8.2069003332
 C        -8.2611960784       10.5240648275       -6.0565061207
 C        -9.5141420858       11.4100380007       -5.4186165057
 O        -9.5867438821       11.3725392987       -4.2145444013
 C       -10.3715743430       12.2279905064       -6.3633479356
 C        -7.4735520517        9.9251251002       -4.9121511646
 C        -7.2567764380       11.3804705542       -6.9461970985
 C        -9.3158971438        4.3196184361       -8.2670817291
 C       -10.8838852505        3.3977685675       -6.4828695434
 C        -6.4479090871        5.5100163736       -0.2390206742
 C        -6.0930625034        3.0684147281       -1.1537073209
 C       -12.7102519416        0.1754468903       -0.4127312567
 C       -13.2422680072        2.0686366594        1.0540158072
 C       -10.2378489763       -3.0528686332        5.7703155846
 C       -12.6616057649       -3.3766170556        5.9648029711
 C        -9.3243548982        1.5889557149        9.2758969290
 C        -9.6995654063        3.8242378707        8.1841179742
 H        -6.2833003467        1.8432586145        6.7242268769
 H        -6.8983000638        1.1468921163        8.2711746320
 H        -6.5715786173        2.8405888958        8.1367868729
 H       -12.7110654136        1.1517453135        8.6848710961
 H       -11.4335622402       -0.0180746292        9.0623282036
 H       -13.1584976457       -0.0311644227        6.5598399161
 H       -12.6016994392       -1.4257665012        7.8452108579
 H       -13.6784977207       -2.2302021775        3.9118962376
 H       -13.2156810779       -3.3934591230        2.7548813805
 H       -13.8431622248       -1.2738859300        1.4918554422
 H       -12.3316737231       -1.8957025061        1.0645126238
 H       -10.7334894229        3.2642218621        0.4277304473
 H       -11.0013070615        2.0179212406       -0.9642229669
 H        -8.8454537927        2.0738579476       -1.3592600127
 H        -8.5527753730        1.7457141422        0.4552005273
 H        -8.8364377739        3.5559194537       -3.7639991470
 H        -7.3260586728        2.8593002675       -3.3913755044
 H        -6.4161574058        4.3039597960       -5.4094751517
 H        -7.8908805097        5.3381774503       -5.1744351770
 H       -11.1351057661        7.1122360785       -7.5661638275
 H        -9.4607851683        7.3151837394       -8.0359822264
 H        -9.2849479175        8.1002442815       -5.4839392525
 H       -10.7410635453        8.9585169847       -6.0593190894
 H       -10.7065364129       11.6862391067       -7.2622044639
 H        -9.5385582176       12.9017810044       -6.8223925394
 H       -11.2637356022       12.6582210528       -5.9221848299
 H        -7.9110800537        9.6588971230       -3.9450710883
 H        -6.7974949278       10.6955648423       -4.7235402960
 H        -6.8280531308        9.0205817611       -5.0581722920
 H        -7.0283354289       10.7672481134       -7.7860499293
 H        -6.2610466405       11.4992388197       -6.4766651189
 H        -7.7885530903       12.2718758263       -7.3115098285
 H       -10.1461466433        4.3832954905       -8.8802555565
 H        -8.8358767734        3.3453601866       -8.4352723607
 H        -8.6083810327        5.1331389621       -8.6699005883
 H       -10.9917788778        2.5782083118       -7.2132223609
 H       -11.8169418620        3.7900253014       -6.4974994022
 H       -10.6266552513        2.8485113481       -5.5990472091
 H        -6.2865046826        5.3745553353        0.9203765192
 H        -7.1327380464        6.3051667773       -0.4121610532
 H        -5.4655559253        5.9237943604       -0.5768073674
 H        -5.4365112420        3.1883559888       -2.0516976125
 H        -6.6032638114        2.1030245473       -1.4346796956
 H        -5.3314736547        2.9482119419       -0.2837532736
 H       -12.9763937027        0.9235996326       -1.1451831372
 H       -13.5647560373       -0.4270198056       -0.2651130668
 H       -12.0663323061       -0.5245361234       -0.8917085224
 H       -12.8742535338        2.9694732959        0.5273616510
 H       -13.3433948413        2.1797145476        2.1509196251
 H       -14.2735213995        1.9915177081        0.6538982080
 H       -10.0325303205       -3.0728599428        6.9435681852
 H        -9.5659808539       -2.3250188264        5.2769016988
 H       -10.0079394686       -3.9785549960        5.3660761680
 H       -12.2549269352       -3.9829161752        6.7317171172
 H       -12.8917541935       -4.0794475834        5.1030566872
 H       -13.5546526806       -2.9589153678        6.4450976522
 H        -9.3673587608        0.5188188775        9.1211759786
 H        -9.9868147427        1.8765609794       10.1051452630
 H        -8.2942596194        1.8157330341        9.5817229246
 H       -10.5070349837        4.0618463961        8.8688051575
 H       -10.0580243727        4.2651387664        7.2303783448
 H        -8.7535382371        4.2252995632        8.5938126802
 Na      -10.0667207476        1.3963397533        4.3283905111
