117

 C        -7.0804477622        2.8116723812        7.5462397822
 C        -8.4418884351        2.4117130720        6.8842739418
 O        -8.5401028980        2.0223243875        5.7409308222
 C        -9.7260052257        2.5831816116        7.9387046685
 C       -10.9062554187        1.8270804225        7.2442755638
 O       -11.2116643979        2.2060105451        6.1301202803
 C       -11.5835397608        0.6577618950        7.9356346051
 C       -12.2107133422       -0.1282382735        6.7338843058
 C       -11.1336003769       -1.1672806836        6.0763934052
 O       -10.0154933459       -0.9901748139        5.6134919094
 C       -11.8419594757       -2.5340278934        5.6405917020
 C       -11.8480938588       -2.5686793533        4.1242983166
 O       -10.8484909703       -2.7241952978        3.4345722454
 C       -13.2550386713       -2.2235378839        3.3061646470
 C       -12.8642096926       -1.5689815824        1.9143718990
 C       -12.2863028495       -0.2206335418        2.2285578516
 O       -12.0819678857        0.1034999781        3.4110230465
 C       -12.2181361336        0.8830584423        1.0584348208
 C       -10.8720127264        1.7049098395        1.1321881629
 O       -10.0976707185        1.6137816648        2.1036325020
 C       -10.5459423484        2.8509980638        0.1591599708
 C        -9.0239862557        2.8277962970       -0.3684659649
 C        -8.4222329710        4.2690679074       -0.7685119655
 O        -9.0828526699        5.2507165154       -0.4660265864
 C        -7.0071531559        4.3402925614       -1.3010578210
 C        -7.2553182015        4.6029765480       -2.9567372017
 O        -7.4071948088        5.7332282948       -3.2230641528
 C        -7.1700468776        3.4060649130       -3.9410235564
 C        -7.5173820820        3.8205382807       -5.4204432635
 C        -8.9668771145        3.3470961028       -5.9761467289
 O        -9.0985587438        2.1500182559       -5.9410142113
 C        -9.9171384161        4.4045595000       -6.6509132387
 C        -9.9051791386        5.8235205981       -5.8999295776
 O       -10.0411224687        5.8362393115       -4.7099574010
 C        -9.7463788940        6.9808621510       -6.7982868868
 C        -9.7454230656        8.3186922761       -6.1682664266
 C        -8.7522445884        9.1965422812       -7.0042857038
 O        -8.6320837720        9.0490178748       -8.2093249923
 C        -7.9173592041       10.3229454294       -6.2892075247
 C        -9.0148459374       11.3221579337       -5.6365763119
 O        -9.1356777915       11.1594700060       -4.4222258377
 C       -10.0321238004       12.1468736193       -6.3525565170
 C        -7.0266944692        9.7256445847       -5.2526221370
 C        -7.1065689062       11.0907423071       -7.3358783931
 C        -9.3658025241        4.3669305669       -8.1367036308
 C       -11.4140026141        3.8039381746       -6.3694967382
 C        -6.3212695114        5.6093643998       -0.7571588520
 C        -6.0872468895        3.1518182193       -0.8822950235
 C       -12.7007652524        0.3418316147       -0.2036502633
 C       -13.3822004051        1.8505516110        1.5702802592
 C       -10.7063308780       -3.6209582127        6.2159832442
 C       -13.2391690580       -2.9730250880        6.1388279873
 C        -9.4105905469        2.1077245377        9.2849633579
 C        -9.9534945476        4.1761028827        7.9464176409
 H        -6.3485674761        3.2325811207        6.8485746376
 H        -6.4755139168        1.9662128590        7.8827204701
 H        -7.1182757267        3.5714588987        8.4004917238
 H       -12.3891303252        0.8875823537        8.6739206126
 H       -10.7878063717        0.0432377802        8.3128573365
 H       -12.4168372261        0.5754218952        5.9082742921
 H       -13.1055012279       -0.7547011932        7.0646911078
 H       -13.9652239011       -1.5546726149        3.9035664042
 H       -13.8312916066       -3.1224492901        3.2101389022
 H       -13.7933883710       -1.4971669889        1.3215184367
 H       -12.0981335659       -2.1147543830        1.2709876000
 H       -10.4058258178        3.7418161676        0.7793754754
 H       -11.1194198369        3.0222104908       -0.7756580769
 H        -8.9965651102        2.0714855112       -1.0860705659
 H        -8.2955930400        2.4918118383        0.4462976990
 H        -7.8294709096        2.6438944833       -3.5713302871
 H        -6.1850756065        3.0799765008       -3.8841976496
 H        -6.6732212978        3.5336675534       -6.0465975626
 H        -7.5183764427        4.9360059787       -5.3250178123
 H       -10.4397890005        7.0937037815       -7.6126472355
 H        -8.8490237229        6.6842105702       -7.4135285375
 H        -9.4896606031        8.3003543636       -5.0953811100
 H       -10.7282500262        8.7787291360       -6.3005736068
 H       -10.1600140635       11.9430262150       -7.3717218562
 H        -9.5432795901       13.0959197330       -6.1542577099
 H       -11.0444615326       12.2344316894       -5.9463020212
 H        -7.0247376298        8.6639953709       -5.3533281742
 H        -7.1740852092        9.9796800139       -4.2910109993
 H        -5.9979475036       10.0065483132       -5.4210824583
 H        -6.1379366242       11.3430787105       -6.9500318750
 H        -7.7630561282       11.8746281635       -7.5620497766
 H        -6.9144931655       10.4395945998       -8.1817912445
 H        -9.9940566954        4.8815917839       -8.8409024189
 H        -9.3422745924        3.2560963107       -8.5733059472
 H        -8.3000971998        4.8020719257       -8.1583531390
 H       -11.4444786237        2.6631265029       -6.3280819455
 H       -12.1690516099        3.9983578158       -7.1260379823
 H       -11.7754868095        4.1803955776       -5.4487618722
 H        -6.3000080377        5.3736329208        0.3455450934
 H        -6.9083392309        6.5382365928       -0.8493800048
 H        -5.2763648561        5.8403845044       -1.2062796521
 H        -5.1392383545        3.5655466125       -0.9656520185
 H        -6.2370999008        2.2269640943       -1.3766865521
 H        -6.0055416320        2.9236866165        0.2674213063
 H       -12.9006024913        1.1761430803       -0.9073428690
 H       -13.6548864250       -0.2137066257       -0.2273496357
 H       -12.0298897276       -0.4019959615       -0.7070400906
 H       -13.9167425410        2.3476094275        0.7229878823
 H       -12.8650506705        2.6312726945        2.1491203957
 H       -14.1658444709        1.5661849416        2.1756605838
 H       -10.5608897842       -3.6032550676        7.2469470759
 H        -9.7614384872       -3.5138364817        5.6725912584
 H       -11.0404621740       -4.6529347522        5.8336999772
 H       -13.4657463772       -2.8891480937        7.2379634967
 H       -13.3029797404       -4.0586766602        5.8983033707
 H       -13.9825210688       -2.4631470596        5.6607176029
 H        -9.1675843026        1.0661867157        9.3179814889
 H       -10.2585631821        2.1908284390        9.9735700463
 H        -8.5624307924        2.7826865410        9.5395411995
 H       -10.9320842833        4.3662265040        8.4471106168
 H        -9.9745694034        4.5376862873        6.8585834989
 H        -9.2427389929        4.6823421175        8.4443580282
 Na      -10.3856702639        1.0666911544        4.3886063920
