117

 C        -7.1100531510        3.0338392737        7.4480827141
 C        -8.3525438218        2.5195603018        6.9603952192
 O        -8.4534464811        2.0516914681        5.8218012147
 C        -9.6890160722        2.6684236590        7.8584167795
 C       -10.9202423603        1.9547032469        7.1169879532
 O       -11.3699801725        2.2695792902        6.0094439453
 C       -11.5566421223        0.7096502031        7.7330289736
 C       -12.0749834717       -0.3429229123        6.7029065959
 C       -11.2764479007       -1.3212729017        6.0104011730
 O       -10.1398008194       -1.0751550918        5.5796776563
 C       -11.9175555226       -2.6907451910        5.6790000527
 C       -11.8394949252       -2.6293852262        4.1419590425
 O       -10.8456564465       -2.7455226897        3.5039043890
 C       -13.1998050804       -2.1914935064        3.4167797495
 C       -12.8389127871       -1.5946547692        1.9953297740
 C       -12.2705045465       -0.1935422782        2.2384381684
 O       -12.0079730238        0.1365030372        3.3962418002
 C       -12.2719657456        0.9811975515        1.1155429680
 C       -10.8150788629        1.7992039508        1.1906290039
 O       -10.1017272289        1.6536861017        2.1891674884
 C       -10.4476940336        3.0055104620        0.2411361434
 C        -9.0010111650        2.8791171200       -0.4141622127
 C        -8.4850070475        4.2808678538       -0.8162169608
 O        -9.1025144752        5.2805084866       -0.6991939183
 C        -7.0080344958        4.3552806866       -1.3727048365
 C        -7.1703460419        4.5771685859       -2.9643257176
 O        -7.3773856762        5.6611190110       -3.4499116990
 C        -7.0618748240        3.3673097608       -3.9459804903
 C        -7.6353158988        3.8690659014       -5.2621093733
 C        -9.0075438207        3.3105549885       -5.7585810987
 O        -9.4509111711        2.1805678434       -5.8288174320
 C       -10.0274917224        4.3169072775       -6.4782414647
 C       -10.0101263601        5.6989223226       -5.8914286049
 O       -10.1037284073        5.9174759906       -4.6698456474
 C        -9.6315364871        6.8537105543       -6.8285982444
 C        -9.6063869032        8.2214720817       -6.1848202717
 C        -8.6151830353        9.1736346331       -6.9862088275
 O        -8.6436474896        8.8739230429       -8.1776526987
 C        -7.8258263328       10.3451062084       -6.3458922547
 C        -8.9414094900       11.2439270171       -5.5801006157
 O        -9.0128838767       11.1265634263       -4.3903918671
 C        -9.8956599683       12.1894825641       -6.3782664113
 C        -6.8809322742        9.6638473976       -5.2333394571
 C        -7.0439947307       11.1605002396       -7.5489301838
 C        -9.3881306867        4.3016671163       -7.8888167706
 C       -11.4414801816        3.7393418548       -6.4485585624
 C        -6.4022794819        5.6180456124       -0.8268495713
 C        -6.1298400771        3.1371642838       -1.0348543192
 C       -12.7144806985        0.3750326647       -0.3138692783
 C       -13.4147509653        1.8404211960        1.6700169917
 C       -10.9247240548       -3.8451702703        6.1276024204
 C       -13.2919691080       -2.8226752767        6.3051368793
 C        -9.5503652667        2.1906418496        9.2710488777
 C        -9.8341868467        4.2543317878        7.8747077470
 H        -6.4382550850        3.4093943270        6.6201249315
 H        -6.3930846731        2.2668607355        7.7957935255
 H        -7.1352572156        3.8586535692        8.1883195907
 H       -12.5543510934        1.0342369455        8.1018568906
 H       -10.9034470174        0.1830164935        8.4984628790
 H       -12.4437050365        0.2552702953        5.7756610609
 H       -12.9199764485       -0.8933595799        7.2850187405
 H       -13.8146005608       -1.5549474196        4.0774849474
 H       -13.7854746337       -3.1001533369        3.3211537485
 H       -13.8000737572       -1.4949178350        1.4247365014
 H       -12.2089306480       -2.3387319105        1.4613277166
 H       -10.2836641777        3.9717931022        0.7343060273
 H       -11.0613529844        3.0719384054       -0.6149709904
 H        -9.1079398289        2.2263825531       -1.3110301990
 H        -8.2353274651        2.3393834912        0.1864783140
 H        -7.5685296746        2.5423829906       -3.5900941279
 H        -6.0295769416        3.2086508884       -4.1583973827
 H        -7.0007794484        3.2810627376       -5.9619674865
 H        -7.4341175330        4.9352015067       -5.3709802690
 H       -10.1291338523        7.0439224749       -7.8218790753
 H        -8.6884203496        6.5359302421       -7.1482028389
 H        -9.2236383770        8.0405635327       -5.1646482580
 H       -10.5760021691        8.6069657298       -6.1207698961
 H       -10.0510411379       11.9420568404       -7.4822193368
 H        -9.7181047256       13.1998272244       -6.1112992109
 H       -10.9496762537       12.0062812937       -5.9717844783
 H        -6.7474169674        8.6017459713       -5.3391967680
 H        -7.5466741353        9.8225945251       -4.3227851877
 H        -5.9876022515       10.1609392549       -4.9248937370
 H        -6.1351723783       10.5340797737       -7.6468410897
 H        -6.9613913764       12.1942687270       -7.3150738007
 H        -7.6036682283       10.9990301662       -8.4568628573
 H       -10.1307669764        4.7895730236       -8.6090361346
 H        -9.1805420454        3.3550026567       -8.3326808657
 H        -8.5179518674        4.8290781689       -7.8400588568
 H       -11.5677955668        2.7366543417       -6.1584243719
 H       -11.7864279746        3.7607476989       -7.5284801347
 H       -12.1593753445        4.3500034542       -5.9692497275
 H        -6.5620063794        5.5924553643        0.2269665705
 H        -6.9100792098        6.6013375487       -1.1953411596
 H        -5.3147184471        5.7039492564       -1.0994373028
 H        -5.0499249257        3.2552462411       -1.4007501726
 H        -6.6393136757        2.1210549274       -1.0674303321
 H        -5.8862314978        3.2593383086        0.0281771388
 H       -12.7640229130        1.2249070532       -0.9458006865
 H       -13.6403537678       -0.1125563426       -0.5310098351
 H       -11.9769906227       -0.2619490314       -0.7606954357
 H       -13.6019092013        2.6148854248        0.8725537672
 H       -13.1583620976        2.3900935600        2.5714524487
 H       -14.4164426032        1.4669123812        1.8085392426
 H       -10.7516917586       -3.7885300366        7.1974981796
 H        -9.8953033248       -3.9846706581        5.5898357449
 H       -11.4961046428       -4.8313605593        5.9066472884
 H       -13.3308570356       -2.9885045622        7.4600529983
 H       -13.9630675805       -3.5574497781        5.8641335079
 H       -13.7317231674       -1.8464167552        6.1316925471
 H        -9.6689199732        1.1305115754        9.4019850139
 H       -10.3782010308        2.6103912257        9.8433185960
 H        -8.6012598328        2.5749944457        9.6112644826
 H       -10.8470998740        4.4088042411        8.2949828481
 H        -9.7093807764        4.7158080810        6.9079382917
 H        -9.1253403031        4.8184803619        8.5372198924
 Na      -10.2654621302        1.1246542167        4.5773005029
