117

 C        -7.0760375562        3.2459360564        7.4182270865
 C        -8.3187253081        2.5865675735        6.9188679674
 O        -8.3640308791        2.0150328994        5.8738791361
 C        -9.7570040336        2.7813298074        7.7519351176
 C       -10.8614404870        2.0499990222        6.9492163183
 O       -11.4189042501        2.6443542713        6.0270439752
 C       -11.4633869918        0.7639478282        7.6010362311
 C       -12.3032035398       -0.3382380243        6.8393252877
 C       -11.2616011302       -1.4127701676        6.0665198029
 O       -10.1888305037       -1.0702835770        5.5842025473
 C       -11.9895621532       -2.7942574777        5.8679162871
 C       -11.9046971178       -2.6703191651        4.0128150921
 O       -10.8238472794       -2.8716806965        3.5173074412
 C       -13.1677370476       -2.2505193438        3.3024923456
 C       -12.8871733784       -1.5320293074        2.0395982003
 C       -12.3331204671       -0.0860174332        2.2714507693
 O       -11.8725743800        0.1567014030        3.3333195470
 C       -12.2054009365        1.1432650006        1.2169752073
 C       -10.8575536480        1.8641518973        1.3125258880
 O       -10.1257787745        1.6674943001        2.2304163876
 C       -10.5827232477        2.9624234602        0.2795708285
 C        -9.1348545107        2.8892730919       -0.3913855742
 C        -8.5187823809        4.2410620606       -0.8769672915
 O        -9.2246505408        5.2498660173       -0.8807930090
 C        -6.9568043124        4.4067710610       -1.4587435784
 C        -7.1112274205        4.5557584448       -3.0264504689
 O        -7.2959973761        5.6978128346       -3.4765489506
 C        -7.0553479186        3.2618642005       -4.0003601625
 C        -7.7829107919        3.6552480007       -5.3684592211
 C        -9.1557420035        3.1322764715       -5.4788575951
 O        -9.4953411435        1.9698525683       -5.3630034598
 C       -10.1890750429        4.3276659580       -6.4510174604
 C        -9.9060600815        5.6945015602       -5.7795122395
 O       -10.2981319085        5.9738482637       -4.6610596258
 C        -9.4651556977        6.8602491539       -6.7218297955
 C        -9.3796722023        8.2551667688       -6.0828490862
 C        -8.6213804591        9.1414768852       -7.0716922522
 O        -8.4832434616        8.8918262199       -8.2398849439
 C        -7.9403357212       10.2590311180       -6.3570156841
 C        -8.7877001674       11.1557778470       -5.5568622991
 O        -8.9542002537       11.1437024796       -4.3666890636
 C        -9.6125046069       12.1264145657       -6.4249628059
 C        -6.7656366288        9.7415128041       -5.4384420137
 C        -7.0942024426       11.0525342297       -7.4764151262
 C        -9.4910204579        4.1933174132       -7.8410963400
 C       -11.5364777509        3.7178205462       -6.6160605274
 C        -6.4107485469        5.7461288934       -0.9013051104
 C        -6.2049728051        3.0983293062       -1.2718764298
 C       -12.4481104591        0.5389593221       -0.2380655558
 C       -13.3793594991        1.9657404648        1.6689114288
 C       -11.2140780834       -4.1394155088        6.0887871244
 C       -13.3705195668       -2.9372586450        6.4150083832
 C        -9.5696096158        2.2980464596        9.3089012613
 C        -9.9390211742        4.3090086273        7.6970351293
 H        -6.4362833261        3.6329582625        6.6259536486
 H        -6.2887790042        2.5623701160        7.8026142929
 H        -7.2021558573        4.0622544303        8.0753221794
 H       -12.1964817118        1.2241792642        8.2802117449
 H       -10.6693333071        0.1546497381        8.1181982355
 H       -13.0008003625        0.1420573405        6.0728214091
 H       -12.7810035984       -0.9066843826        7.5952344569
 H       -13.5788493411       -1.7038206087        4.0953541997
 H       -13.8244574680       -3.1545584173        3.1865310618
 H       -13.7463515244       -1.6239741139        1.3459942487
 H       -12.0948972548       -2.1392430258        1.6490603379
 H       -10.4537273356        3.9737939162        0.6409156148
 H       -11.3381315434        2.9347080676       -0.4982458805
 H        -9.0974681539        2.1495390267       -1.3107271937
 H        -8.5014197345        2.3597126325        0.3009168384
 H        -7.6318309565        2.5141628023       -3.4432431304
 H        -5.9678075725        3.0498991822       -4.2362166969
 H        -7.3252149284        3.2263793464       -6.2962366811
 H        -7.7338183516        4.7428835125       -5.4016336594
 H       -10.2700803900        7.0236846323       -7.4868234622
 H        -8.6671017346        6.6302391140       -7.3901415565
 H        -8.7439173601        8.1433238281       -5.2321583734
 H       -10.3366906114        8.6216963636       -5.7076130596
 H        -9.7042758413       11.7553344093       -7.4780706107
 H        -9.6411306425       13.2384025253       -6.1959649487
 H       -10.6313458206       11.8153934635       -6.1117320785
 H        -6.1680000117        8.8682729828       -5.8242127782
 H        -7.3228115342        9.4008733163       -4.4720879792
 H        -6.2342483481       10.6226559032       -5.0013471426
 H        -6.9447747825       10.2250541436       -8.1447806524
 H        -6.1675825476       11.5168308279       -7.0195370704
 H        -7.7052733806       11.8970066282       -7.9132402863
 H       -10.0699058892        4.7761733845       -8.5358434970
 H        -9.5789261389        3.2594745901       -8.1938191498
 H        -8.4431835755        4.4253382454       -7.8510998274
 H       -11.5920199927        2.7932491805       -6.1087769485
 H       -11.8060889169        3.5194801318       -7.6364961770
 H       -12.4047266490        4.3861921008       -6.3061221196
 H        -6.6556325297        5.8928719295        0.1525312460
 H        -6.8222394666        6.5823116977       -1.4099456939
 H        -5.3848710437        5.7694318732       -1.0729242576
 H        -5.2403754135        2.9285463574       -1.8609988132
 H        -6.9567838600        2.2753760607       -1.1017405522
 H        -5.8169905877        3.1504897962       -0.2887504230
 H       -12.4056235058        1.3331928221       -0.9394148655
 H       -13.4137851098        0.1963596765       -0.4674758676
 H       -11.7744743587       -0.1658905066       -0.6080232579
 H       -13.2952712228        2.9690347227        1.2718622153
 H       -13.5650880665        2.1260664709        2.7451101383
 H       -14.3726233394        1.6829977055        1.1798542586
 H       -10.8345027342       -4.0879580352        7.2572291172
 H       -10.2872999373       -4.2016727392        5.5020402706
 H       -11.7712552079       -5.0065227769        5.9202687500
 H       -13.3963738935       -3.1424827694        7.4602485575
 H       -13.9374000704       -3.7609124649        5.9544128963
 H       -13.9994888553       -1.9099007891        6.2582299361
 H        -9.6529410577        1.1972017867        9.3176720657
 H       -10.4871885026        2.5973422670        9.7860443251
 H        -8.7036674588        2.6742669278        9.7884912077
 H       -10.8612969823        4.5502327559        8.1857618858
 H        -9.7341654625        4.8592125072        6.8081228895
 H        -9.0911236350        4.6695727337        8.4557575184
 Na      -10.0295437896        1.1267903758        4.6316326741
