117

 C        -7.1165639765        3.3817977042        7.4392692890
 C        -8.3588863764        2.6397454513        6.9137212265
 O        -8.2112487323        1.9615577897        5.9190109106
 C        -9.7160298279        2.9030588688        7.6717434114
 C       -10.9781291135        2.2416506460        6.9897540868
 O       -11.3732080369        2.8377421297        6.0148771061
 C       -11.3159345946        0.7904910195        7.5912795204
 C       -12.2112607205       -0.2836279343        6.8956556401
 C       -11.4265790957       -1.4443998835        6.1704084068
 O       -10.3755099310       -1.0944248924        5.7442930508
 C       -12.0457575932       -2.8494987133        5.6942170102
 C       -11.9603846147       -2.7248715648        4.1554508501
 O       -10.9633265480       -3.0341126473        3.5924133884
 C       -13.2008645698       -2.2502489444        3.1740068092
 C       -12.8119348837       -1.3706513668        1.9368423531
 C       -12.1698028346       -0.0798811938        2.3465005610
 O       -11.7909913918        0.1403595107        3.4969019166
 C       -12.2941144967        1.1433881328        1.2999863266
 C       -10.8755742432        1.9322134006        1.4001395288
 O       -10.0065070145        1.7885923940        2.2532415701
 C       -10.5769929304        3.0024400701        0.2923020554
 C        -9.1727422376        2.8977122401       -0.3228819255
 C        -8.6346921999        4.2122183705       -1.0466433833
 O        -9.3522573864        5.2094005681       -0.9919231286
 C        -7.1514795379        4.2982948086       -1.5265272590
 C        -7.2456835290        4.5786690819       -3.1469771117
 O        -7.1800145691        5.6660361217       -3.5970819809
 C        -7.1851609440        3.3643936868       -3.9317501180
 C        -7.7966066229        3.4645062005       -5.4483105606
 C        -9.2893844039        2.9942615791       -5.5380821689
 O        -9.6532480675        2.0589273046       -4.8740593363
 C       -10.1351859209        3.9662807233       -6.4054029648
 C       -10.1395851916        5.7119252575       -5.7045945039
 O       -10.4728955653        5.9164809322       -4.6120511329
 C        -9.5282353151        6.6993225909       -6.7020848352
 C        -9.1828012318        8.0732614641       -6.0236826071
 C        -8.4564362240        9.0477540306       -7.0271624892
 O        -8.4676754922        8.9051227748       -8.2417149712
 C        -7.7146801962       10.3418260220       -6.3473388496
 C        -8.7621797345       11.1944795542       -5.5842695331
 O        -8.8199815792       11.1179544411       -4.3724082929
 C        -9.6730823741       12.1664345870       -6.4635358467
 C        -6.5440467634        9.7198294431       -5.4841486239
 C        -6.9759246147       11.1525769869       -7.5760835207
 C        -9.4431219889        4.0398002456       -7.8453543666
 C       -11.6900344505        3.7411367723       -6.5472042271
 C        -6.4583928594        5.5920264333       -0.9804901075
 C        -6.1786571895        3.0976332569       -1.2913093545
 C       -12.2465505700        0.6361673165       -0.1589886920
 C       -13.3908216196        2.2387040271        1.5508219849
 C       -11.3052407214       -4.1816888070        6.0997495574
 C       -13.4524068349       -3.0696811583        6.2671675016
 C        -9.5054252661        2.4807221671        9.1419147625
 C       -10.0824586263        4.3840758787        7.6206495339
 H        -6.4722120925        3.7882060970        6.7402384049
 H        -6.3855646943        2.7057668339        7.8152025743
 H        -7.3005488917        4.1979291225        8.1167726278
 H       -11.7208131774        0.9338243048        8.5850468129
 H       -10.3570175683        0.3421003457        7.5765484889
 H       -12.8120311627        0.1558133449        6.1621087939
 H       -12.8159512821       -0.7433892056        7.6133876919
 H       -13.8569663960       -1.7337591969        3.8621336507
 H       -13.6708505200       -3.2142604895        2.9015100830
 H       -13.7370591929       -1.0948231026        1.4653032376
 H       -12.2505518797       -2.0590676858        1.3023337755
 H       -10.5321094328        4.0369866858        0.7079850384
 H       -11.3917983879        3.0263139966       -0.5132773782
 H        -9.0987987618        2.0618857170       -1.0182393722
 H        -8.5317177166        2.4640399536        0.4968229965
 H        -7.6555260502        2.5246389027       -3.2635892679
 H        -6.0541398224        3.3173839255       -4.0553655386
 H        -7.1948631844        2.9900999257       -6.2129391574
 H        -7.7636016616        4.5531161696       -5.5844481656
 H        -9.9752787044        6.8759137582       -7.6511579186
 H        -8.5659584577        6.1213818267       -7.0080629750
 H        -8.6432745947        7.8410833140       -5.1217809030
 H       -10.1304278455        8.6288467680       -5.7113018837
 H        -9.4426987578       11.8113762300       -7.4179999113
 H        -9.1498781724       13.1521138872       -6.1998002015
 H       -10.7276768980       12.4336000531       -6.4820230019
 H        -5.8103982729        9.1824819466       -6.1949525560
 H        -6.9399714253        8.8891037406       -4.8963819672
 H        -6.1046079044       10.4111306073       -4.6888820952
 H        -7.5602579713       10.9054758124       -8.4655514444
 H        -5.8388681198       11.0404161502       -7.6569233312
 H        -7.1303514208       12.1704977980       -7.1417017686
 H        -9.9461103036        4.7870275041       -8.2756531538
 H        -9.7918596221        3.1567584285       -8.4888940004
 H        -8.3350266683        4.0303140335       -7.9696078196
 H       -12.0755853418        2.8948487628       -5.8918134842
 H       -12.1547570767        3.6927486418       -7.4871095915
 H       -12.1461708299        4.6834584635       -6.1714934614
 H        -6.5556043438        5.7445327255        0.0809850873
 H        -6.8259664020        6.4356305910       -1.4032297799
 H        -5.4443327698        5.4358093479       -1.2346177414
 H        -5.3444717136        3.2553993141       -1.8917002950
 H        -6.6410329732        2.1815034275       -1.4110547219
 H        -5.7802389581        3.0202607957       -0.2071662602
 H       -12.1908224921        1.4464741517       -0.8832168056
 H       -13.1748438239        0.2541697491       -0.5075010763
 H       -11.4418980164       -0.0243973846       -0.5009365097
 H       -13.0580632084        3.2875247581        1.4173456864
 H       -13.7157070226        2.2482224334        2.6194879256
 H       -14.3077064216        2.1707375160        0.9763524863
 H       -11.1369479690       -4.1230014844        7.1203172477
 H       -10.3601421498       -4.3081536983        5.6607434037
 H       -11.8786581235       -5.0651707952        5.8496919092
 H       -13.1734753735       -2.9941861145        7.2921510612
 H       -13.8203635164       -4.1404776399        6.2543718764
 H       -14.3256007122       -2.4782556623        6.1066105105
 H        -9.2256165530        1.4245971738        9.1766063886
 H       -10.5508674148        2.5217765379        9.4543019413
 H        -8.8776469131        3.1479526872        9.7426290386
 H       -11.0691133146        4.4825102322        8.1032311002
 H       -10.0470261294        4.7304945281        6.5222139597
 H        -9.4188089556        5.0317216006        8.0697388475
 Na       -9.8437014941        1.0570696395        4.5378498784
