117

 C        -7.2659964425        3.6118399402        7.2945004957
 C        -8.4221219693        2.8388555965        6.7978636170
 O        -8.1997956787        2.0403987482        5.9209190446
 C        -9.8690551198        3.1184038660        7.5412558304
 C       -10.8565757409        2.0238578537        6.9493266630
 O       -11.3223667538        2.2979504988        5.8622698512
 C       -11.0045844696        0.6235973063        7.5707108357
 C       -12.0580373009       -0.1368041950        6.7775522084
 C       -11.3734878967       -1.1690068971        5.9771631864
 O       -10.2526219241       -1.0407078702        5.5733609509
 C       -12.1833858146       -2.5156701212        5.6539331136
 C       -12.0949045660       -2.6733061045        3.9321023471
 O       -11.3050310259       -3.3429208667        3.3915723903
 C       -13.3529791641       -1.9781694665        3.2015884790
 C       -12.8191776993       -1.1105075148        2.0215062556
 C       -12.0979075772        0.1680676152        2.4736618372
 O       -11.9044871408        0.3803082684        3.6758081491
 C       -11.8270769240        1.1971461895        1.4189147245
 C       -10.5589551636        2.1412700418        1.6004757579
 O        -9.8336782527        1.9365673110        2.5399772790
 C       -10.4438112924        3.2303181661        0.5600509943
 C        -9.1038093802        3.0023881643       -0.1811782130
 C        -8.7428053801        4.2100511553       -1.1304560146
 O        -9.5075526886        5.0832143319       -1.4752831797
 C        -7.3178666001        4.2380200410       -1.6814886705
 C        -7.2948276694        4.3034608035       -3.2360262088
 O        -7.2375189953        5.3055275465       -3.8742796301
 C        -7.2630910862        2.9047253686       -3.9294702598
 C        -7.9666528262        2.9873559515       -5.3273400524
 C        -9.5680888137        3.3056299063       -5.1848402465
 O       -10.1060173023        3.0650168479       -4.1385339263
 C       -10.3378402286        3.9638924658       -6.4228654046
 C       -10.2005507198        5.6370556491       -5.9281480273
 O       -10.7012846431        5.9442436583       -4.9359278137
 C        -9.1860332982        6.4869705602       -6.6186576903
 C        -8.6861753294        7.7854231862       -5.9263506332
 C        -8.2251174283        8.8577281624       -6.8844331418
 O        -8.5153829454        8.7897636529       -8.0630605705
 C        -7.3912340499       10.1614964580       -6.5177868058
 C        -8.5346624270       11.0575746046       -5.5686296589
 O        -8.5286967934       10.9271131285       -4.3717923147
 C        -9.3230184984       11.8935663508       -6.3601864823
 C        -6.3314016342        9.8697820163       -5.4309847193
 C        -6.8873087372       10.8377214505       -7.8184011222
 C        -9.8868791071        3.5745770253       -7.8656939678
 C       -11.9216251287        3.4477351252       -6.2665631593
 C        -6.7424343783        5.5474664764       -1.0759481675
 C        -6.4072894964        3.0524599651       -1.1573324967
 C       -11.8475944900        0.7321766854       -0.0360638447
 C       -13.0728601792        2.1686770193        1.6727723665
 C       -11.4790407247       -3.6636562058        6.4222757714
 C       -13.6584767487       -2.6012481489        6.0484960914
 C        -9.6808114504        2.8982173893        9.1566723681
 C       -10.3863715507        4.5805539096        7.2084927311
 H        -6.5953105148        3.9471539185        6.4873142698
 H        -6.4392585897        2.9812383126        7.7454800651
 H        -7.4216373775        4.5745442464        7.8035243291
 H       -11.4177097525        0.7329930517        8.6034334020
 H        -9.9412333685        0.1562525853        7.5414628877
 H       -12.6736150446        0.5186119009        5.9785584005
 H       -12.8054178160       -0.6499445182        7.3910225814
 H       -13.8785832303       -1.2793862395        3.7790594900
 H       -13.9689636640       -2.8786003039        2.8776747563
 H       -13.7491867266       -0.9648638625        1.4548560703
 H       -12.0259872621       -1.6342041469        1.4913125139
 H       -10.7236327574        4.0877508633        1.1075800085
 H       -11.2352989954        3.2487577367       -0.1725063710
 H        -9.1641070274        1.9523286748       -0.6472301421
 H        -8.3458736241        2.7273090368        0.5060702083
 H        -7.8519513818        2.2299821538       -3.3076318852
 H        -6.2367252754        2.5639227240       -3.9133812798
 H        -7.6608644735        2.2451153091       -6.0938649646
 H        -7.7763107758        3.9932995448       -5.6938883069
 H        -9.6681876852        6.6448477110       -7.6151138591
 H        -8.3688760412        5.8308676111       -6.8713778307
 H        -7.9304214033        7.5572868210       -5.2030557871
 H        -9.5256769325        8.1761810954       -5.3574562120
 H        -9.8280967748       11.2720006794       -7.0727231970
 H        -8.8842193991       12.9026150074       -6.6854641491
 H       -10.0534438892       12.3071853887       -5.6731210537
 H        -5.4618146354        9.3474006317       -5.8652092740
 H        -6.6695541871        9.2118230309       -4.6929669160
 H        -6.0117125069       10.8474955308       -5.0839149597
 H        -6.8345071484       11.8799871442       -7.8294399751
 H        -7.6639633711       10.5905275194       -8.5344259293
 H        -5.9522837774       10.3023292398       -7.9972747977
 H       -10.6288702264        3.7057337022       -8.4870111673
 H        -9.5042360290        2.5693155387       -7.9273438286
 H        -9.0074870510        4.1910964643       -8.1569743412
 H       -11.8499429573        2.5579199657       -5.6957985021
 H       -12.4171198415        3.2779524898       -7.1536516910
 H       -12.6196549461        4.1917460679       -5.7899073814
 H        -6.2672560435        5.4869913116        0.0024750867
 H        -7.5471370023        6.2397351607       -1.0137141660
 H        -5.9160586601        5.8953609770       -1.7194383263
 H        -5.5192840308        2.9401998513       -1.8456364299
 H        -6.8342997165        2.0169758045       -1.3040126062
 H        -6.2133341846        3.2593786567       -0.0484179241
 H       -11.4563707605        1.2859862814       -0.8728735130
 H       -12.8199014715        0.4154242336       -0.3588690144
 H       -11.1557700438       -0.0821319462       -0.1195234960
 H       -13.3101971922        2.9662549873        1.0236205103
 H       -13.1002654533        2.7374894337        2.6071589120
 H       -13.9247222120        1.4585526015        1.7957308550
 H       -11.6322523307       -3.6735343684        7.5198070121
 H       -10.3301829610       -3.5348547480        6.3683347328
 H       -11.7018772792       -4.6840349590        5.9153730719
 H       -13.9527449036       -2.8967800290        7.0190860743
 H       -14.1697648456       -3.4032538083        5.4251595663
 H       -14.3033808775       -1.7519753616        5.6566542011
 H        -9.2640861499        1.8851567189        9.1754810750
 H       -10.6325117085        3.0451860576        9.6608194080
 H        -8.9721215707        3.5743881694        9.5749679723
 H       -11.0957731687        4.9657284807        7.9465388118
 H       -10.7018027227        4.7267856534        6.1359082898
 H        -9.4959508458        5.2143684547        7.2729695242
 Na       -9.6738706570        0.7617666474        4.5620312877
