117

 C        -7.3276240028        3.9149175398        7.1788654114
 C        -8.4664913015        2.9916267191        6.8151384354
 O        -8.2893943675        2.2599848333        5.8653099841
 C        -9.8901053185        3.1629234000        7.5015203758
 C       -10.7350942678        2.0042616871        6.8263197912
 O       -11.1044881253        2.0455797867        5.6771011718
 C       -11.0775994184        0.7751265964        7.7593375551
 C       -11.9108958131       -0.2337078445        6.9799101515
 C       -11.3673053903       -1.3531873979        5.9307233969
 O       -10.2612509534       -1.1905314091        5.3815961205
 C       -12.2764625887       -2.4104574442        5.6086378122
 C       -12.3124994373       -2.6373056434        3.9800339621
 O       -11.5204053356       -3.3602361319        3.4440093231
 C       -13.4238899667       -1.8990018256        3.2537425191
 C       -12.7528682602       -1.2191967258        2.0353881879
 C       -12.0540225522        0.1263229770        2.4921943638
 O       -11.9203744528        0.3683946776        3.6299039457
 C       -11.7793224487        1.3951350789        1.4425889808
 C       -10.5182821189        2.2467105228        1.7755870691
 O        -9.7283491137        2.0200851650        2.6514113580
 C       -10.1628162069        3.4562957805        0.9535632121
 C        -9.1023434796        3.1172162520       -0.0386989521
 C        -8.7824589312        4.1147753122       -1.1235516955
 O        -9.6174607924        4.8538475754       -1.6273253130
 C        -7.1788910404        4.2632103066       -1.6749561092
 C        -7.2959448964        4.0121037833       -3.2916039363
 O        -7.2623484437        5.0595221794       -3.9905147942
 C        -7.5520411417        2.5941353909       -3.9792464079
 C        -8.3007261374        2.8407013472       -5.2840255439
 C        -9.6889963360        3.4511218626       -4.9420074420
 O       -10.0559385076        3.5663485094       -3.7778796440
 C       -10.4409149946        4.0551748676       -6.2590456334
 C       -10.2764024079        5.6337924704       -6.0892418423
 O       -11.0275194446        6.3352974334       -5.3969619784
 C        -8.8672912470        6.2064144790       -6.6651965404
 C        -8.3763940690        7.3975319383       -5.8462684423
 C        -8.1942219228        8.5774108861       -6.8631858017
 O        -8.6641152636        8.5979997193       -7.9640149653
 C        -7.3608802065        9.8378131968       -6.4180732698
 C        -8.3487056041       10.7152330397       -5.5968841076
 O        -8.4262278251       10.8128197961       -4.3858487692
 C        -9.3778534244       11.7378433400       -6.4171173897
 C        -6.1190325648        9.5065621092       -5.5910321877
 C        -6.8371713467       10.6363566858       -7.7005512585
 C        -9.8509703092        3.5512012474       -7.6152528490
 C       -11.9481540356        3.8570558421       -5.9556056237
 C        -6.6538273442        5.6795171951       -1.5398885782
 C        -6.2407536439        3.1692590904       -1.0280787214
 C       -11.6740242512        0.7005101596        0.0338092229
 C       -13.0656467612        2.2807704018        1.5341420814
 C       -11.6831926397       -3.7217364227        6.1768026684
 C       -13.6431172873       -2.1583525275        6.1572419865
 C        -9.8246251223        3.1667523651        9.0132830402
 C       -10.4191175299        4.4889953555        6.9394484763
 H        -6.5901144233        4.0523852737        6.4052877382
 H        -6.6502865637        3.5164709311        7.8582317707
 H        -7.5700562578        4.9023552881        7.4384485757
 H       -11.8506315611        1.1622598134        8.4270767831
 H       -10.2410243528        0.4439725968        8.3059147226
 H       -12.5974670903        0.2854168934        6.4371609081
 H       -12.5670889487       -0.7735728584        7.6548401401
 H       -13.8829655751       -1.0932857127        3.9084293481
 H       -14.0626954955       -2.6558486544        2.8999710915
 H       -13.5996133636       -1.0568511805        1.4007485657
 H       -12.0173645291       -1.9462762404        1.6515562374
 H        -9.9107385822        4.3033232627        1.6730267815
 H       -10.9853959767        3.9580833730        0.4134597781
 H        -9.3280389224        2.2212297894       -0.5704817145
 H        -8.2162086902        2.7091382852        0.5381029989
 H        -8.0894320906        1.7770028398       -3.3974535625
 H        -6.5502455416        2.1025188025       -4.3035477053
 H        -8.5436484630        1.9044737953       -5.7704244516
 H        -7.7688267049        3.4465380173       -6.0497421390
 H        -8.9317477244        6.3559315354       -7.7287141689
 H        -8.2090435731        5.3370784276       -6.4879474416
 H        -7.4025410266        7.1471494789       -5.3411760909
 H        -9.0432912784        7.6169986858       -4.9847447423
 H       -10.0898910087       11.2501487954       -7.1696288441
 H        -8.7881393462       12.4793982592       -6.9044390655
 H        -9.9347448622       12.4072924905       -5.7142727651
 H        -5.9739187543        8.4095272253       -5.5918583643
 H        -6.2028882395        9.7203365611       -4.4417957101
 H        -5.2079133910        9.9400807435       -6.0787059609
 H        -5.6762296805       10.5803593166       -7.6904511579
 H        -7.0347694136       11.7168409755       -7.6371724539
 H        -7.1474326919       10.0418892929       -8.5647404828
 H       -10.5521497596        3.7198822190       -8.5405679010
 H        -9.7450117972        2.4875479660       -7.4531293661
 H        -8.8746193250        4.0097692529       -7.8509140157
 H       -12.2181824961        2.8194988940       -6.1921734102
 H       -12.6147062568        4.6391011625       -6.4722866017
 H       -12.1427275130        3.9587519546       -4.9005221990
 H        -6.7516513399        6.0409075721       -0.5841704687
 H        -7.2542151113        6.2753092425       -2.2389353693
 H        -5.6388489691        5.7482252428       -1.7634040414
 H        -5.3431962358        3.0068633254       -1.5522717493
 H        -6.6730401131        2.1963550614       -1.0852752225
 H        -6.1399261591        3.4658599646       -0.1025107920
 H       -11.2996009326        1.3499926014       -0.7218504258
 H       -12.6794638187        0.3149377874       -0.2170587639
 H       -10.9369170754       -0.0966699922       -0.0372964540
 H       -13.1618165421        2.8864413373        0.6193590203
 H       -13.0204342000        3.1783936964        2.1482192425
 H       -13.9562119434        1.7671038506        1.8450904210
 H       -11.1959601323       -3.5235044900        7.1843931485
 H       -10.9492302211       -4.2071493874        5.6819792462
 H       -12.4543516440       -4.3013617762        6.3597307008
 H       -13.5648861026       -2.1550855542        7.2823672327
 H       -14.4032204964       -2.8281001727        5.9837750325
 H       -14.0216286434       -1.2109488020        5.8115115722
 H        -9.5836158135        2.2004301407        9.3951999242
 H       -10.7000909396        3.6760635234        9.3332407438
 H        -9.0206532539        3.8624069802        9.2556896781
 H       -11.5001275840        4.6779038623        7.2310490564
 H       -10.3103592180        4.5247619745        5.9066684819
 H        -9.8511768327        5.3997417067        7.3982416024
 Na       -9.7018088542        0.9818243927        4.5383732060
