117

 C        -7.5735005965        4.0512258738        6.9987585522
 C        -8.7316294846        3.1326134775        6.6626472615
 O        -8.4203276294        2.2513842385        5.8516642807
 C       -10.0897061592        3.5027079932        7.3330179029
 C       -11.0167610212        2.1526200248        6.9081678484
 O       -11.6768702006        2.2329762103        5.9164163925
 C       -10.8129952005        0.9232890006        7.8452421388
 C       -11.6864575332       -0.2477639396        7.5323637840
 C       -11.3852533776       -1.0687783694        6.1502589041
 O       -10.3441444977       -1.0609273196        5.5645755303
 C       -12.4609717896       -2.0994103751        5.7787859854
 C       -12.6211943055       -2.0771653098        4.0797307313
 O       -11.8357244304       -2.6567764759        3.4669865682
 C       -13.7622096723       -1.1894263088        3.3405006371
 C       -13.1535126096       -0.6570831572        2.0413908069
 C       -12.0365815886        0.3716683423        2.3616505095
 O       -11.6685029741        0.5303646621        3.4820999540
 C       -11.5611228760        1.3232645077        1.2966746880
 C       -10.1892306984        2.1104857659        1.5193699289
 O        -9.3567823663        1.8623001003        2.3569175715
 C        -9.8161618351        3.2968219108        0.3914094375
 C        -8.4109453543        3.3314880514       -0.0521463885
 C        -8.1497572457        4.5429181897       -1.0567334694
 O        -8.8191440397        5.5203424845       -1.0672567525
 C        -6.8548402473        4.3936226444       -2.0499830704
 C        -7.3425470388        3.6222372464       -3.2740631613
 O        -6.6467113458        3.8193143317       -4.2662489262
 C        -8.5497827419        2.5592281980       -3.3388596905
 C        -9.2793549126        2.6145507166       -4.6704341785
 C       -10.4806202851        3.6980661612       -4.5818389819
 O       -10.9267392395        3.8929165602       -3.5037080990
 C       -11.0339967952        4.3423810018       -5.7838028567
 C       -10.2807296015        5.4771366221       -6.3684087532
 O       -10.7368133478        6.4601035560       -6.8883403122
 C        -8.6833984701        5.4917505855       -6.2628804671
 C        -8.0703465883        6.8316188487       -5.6861647932
 C        -7.8646537402        7.8353656979       -6.9354893374
 O        -8.2671152264        7.7141129381       -8.0452684774
 C        -7.0643155767        9.1168953083       -6.5684305780
 C        -7.9192017830       10.0896071657       -5.5695504237
 O        -7.7711270173       10.4020695972       -4.4278214470
 C        -9.2673419764       10.7420523621       -6.1697047463
 C        -5.7316066741        8.8208427380       -5.7172494856
 C        -6.6050651518        9.9641395711       -7.7698907105
 C       -11.1268931287        3.2104919258       -6.8210339637
 C       -12.6000416654        4.7933771385       -5.5685265958
 C        -6.2899026525        5.8497925636       -2.3555110715
 C        -5.6761821941        3.5287897081       -1.3723479380
 C       -11.2942164796        0.5141690994       -0.0190309204
 C       -12.6904667349        2.4301092530        1.0990547485
 C       -12.0589904720       -3.5762429055        6.3318947612
 C       -13.6724538865       -1.7582012712        6.5385862592
 C        -9.7998046900        3.7150044071        8.8513457765
 C       -10.8154730485        4.7479860112        6.5607255592
 H        -6.6268485530        3.8600052857        6.4175144798
 H        -7.3662840760        3.9937556544        8.0638817850
 H        -7.7382471537        5.1307660175        7.0003362455
 H       -11.0745467777        1.3088072968        8.8827963593
 H        -9.7678932940        0.6319559617        7.9449894791
 H       -12.7136591450       -0.0977501204        7.6485836762
 H       -11.5667580467       -1.1231775847        8.3008762646
 H       -14.0110582734       -0.2412463181        3.9551744824
 H       -14.7068430855       -1.6725253123        3.2083640136
 H       -14.0049704531       -0.1400754466        1.5667330623
 H       -12.8789597679       -1.5837679916        1.4670898399
 H        -9.8278502992        4.2018625618        0.9509859860
 H       -10.5237457241        3.3506493556       -0.4072115658
 H        -8.0715517423        2.4407251457       -0.5319909829
 H        -7.7230984146        3.4846550000        0.8870651576
 H        -9.3066137909        2.5648891858       -2.5986832542
 H        -8.1723351727        1.5910822549       -3.3068052289
 H        -9.9104041495        1.7249815133       -4.7276968656
 H        -8.6462144353        2.6005277182       -5.5760089476
 H        -8.3551311481        5.0866916927       -7.2289617283
 H        -8.4934375593        4.6668910266       -5.5244618212
 H        -7.1133317285        6.6888420836       -5.2289361735
 H        -8.6531089344        7.2379570798       -4.8496760148
 H        -9.2672091215       11.0309391476       -7.2561962949
 H        -9.5379720287       11.6664172060       -5.8148815848
 H        -9.9200552011        9.8935392499       -6.0710932665
 H        -5.5553306659        9.5947916397       -5.0517018956
 H        -4.8938014370        8.8008182994       -6.4536868042
 H        -5.6333470842        7.8808516689       -5.2538954739
 H        -5.7283421805       10.5384278025       -7.4536788220
 H        -7.3382547755       10.6661341591       -8.2028266041
 H        -6.4718306088        9.2418595619       -8.5122558441
 H       -11.7242581455        3.4451834455       -7.6833467489
 H       -11.6392970398        2.4881412471       -6.2578479031
 H       -10.0903291713        2.8879367413       -7.0830018509
 H       -12.9991813944        4.1548269077       -4.7768828320
 H       -13.1485003736        4.4923583590       -6.5157591953
 H       -12.6865470196        5.7976266111       -5.2113317997
 H        -5.4801149450        6.1266378730       -1.6327438699
 H        -7.1961206466        6.5007140088       -2.1806160354
 H        -6.0835604628        5.9933369776       -3.4482086462
 H        -4.7242654115        3.8752179169       -1.8880078232
 H        -6.0652158388        2.4535277570       -1.2089010651
 H        -5.5068745086        3.8123321681       -0.3626335548
 H       -11.1338760799        1.1615426653       -0.9223505855
 H       -12.2754265427       -0.0447744628       -0.2951897751
 H       -10.6362567439       -0.3648939059        0.2739147612
 H       -12.4696115001        3.4224083954        1.5042236794
 H       -13.6168230826        2.1187904846        1.5551264035
 H       -12.8439965485        2.7329582382        0.0825557383
 H       -12.6658771072       -3.8224362217        7.3276935226
 H       -10.9370632863       -3.5604697004        6.5677393694
 H       -12.2655829620       -4.5047086651        5.7811190024
 H       -13.3981815158       -1.6782703902        7.6257248446
 H       -14.4565978167       -2.4341970502        6.5066768808
 H       -13.9342579025       -0.6895585681        6.3147902164
 H        -9.2494599687        2.8650434336        9.2443480937
 H       -10.7777397976        3.6096937290        9.3096352253
 H        -9.1963799587        4.6411803756        9.0038340256
 H       -11.2772989315        5.5190592398        7.1900065594
 H       -11.6088521618        4.4537715357        5.9933545321
 H       -10.0753513120        5.3255703638        5.8547944366
 Na       -9.7773101728        1.0555724959        4.4730607453
