117

 C        -7.5391213790        4.1072936153        7.0599997518
 C        -8.7485281864        3.2420698181        6.6332308481
 O        -8.6185888274        2.2254299204        5.9828576870
 C       -10.1463108080        3.4932120162        7.2283589137
 C       -10.9534044774        2.2489554394        6.9162769603
 O       -11.6415436696        2.1408542333        5.9109822183
 C       -10.6600166344        0.9889414448        7.7774076310
 C       -11.6165910290       -0.2778554522        7.6797822988
 C       -11.3773285361       -1.0742280179        6.3955483704
 O       -10.2485842478       -0.8192162995        5.8604118627
 C       -12.5190337944       -1.9935198468        5.8596443370
 C       -12.5767736007       -1.9954532319        4.1664790508
 O       -11.9088373486       -2.7274238040        3.4998218010
 C       -13.7249531335       -1.2354286974        3.4372534535
 C       -13.2941681557       -0.4738328272        2.0864446446
 C       -12.1578660298        0.5078585639        2.3785544802
 O       -11.8130637805        0.5079214106        3.5891572737
 C       -11.4607060482        1.4160296330        1.2020819717
 C       -10.0929959032        2.2004726872        1.2906008085
 O        -9.2264969804        1.8280266050        2.0960810386
 C        -9.8911845127        3.2616969136        0.2723639378
 C        -8.4169075526        3.3630212893       -0.1187477787
 C        -7.9471549010        4.5785796708       -1.0000332380
 O        -8.6330620877        5.5644318913       -0.9977030505
 C        -6.7866142365        4.4013133086       -1.8911300045
 C        -7.2868116393        3.5054144408       -3.3251218946
 O        -6.6081930179        3.6222249285       -4.3270551223
 C        -8.5851293874        2.6708806297       -3.1609524802
 C        -9.5439833397        2.6008407727       -4.4981878643
 C       -10.6732879317        3.7179209924       -4.4437900138
 O       -11.0834380386        4.0109770599       -3.3382698046
 C       -11.1423744056        4.2387062188       -5.7789290606
 C       -10.1848470201        5.5324936370       -6.4264714291
 O       -10.7494687327        6.4559138384       -6.9199566147
 C        -8.6665471088        5.3838848257       -6.2342555589
 C        -8.1671473932        6.7754031508       -5.8958288130
 C        -7.8841830813        7.8050464836       -6.9420587358
 O        -8.0835958024        7.5198507546       -8.0888293972
 C        -7.0553332897        9.0849013751       -6.5026170587
 C        -7.9967407265        9.9971680705       -5.5717729651
 O        -7.5290987746       10.2862566877       -4.5148576009
 C        -9.3184627208       10.5583369464       -6.1099549556
 C        -5.7464753212        8.6921606418       -5.6512928378
 C        -6.6106902816        9.8144682699       -7.7911761448
 C       -11.1996531218        3.1891442872       -7.0479952476
 C       -12.5806190436        4.9369953201       -5.4562601695
 C        -6.3164992884        5.8094038309       -2.3265816993
 C        -5.5686896988        3.5417025222       -1.4471303083
 C       -11.1499469480        0.5422567661       -0.0326693081
 C       -12.6282817012        2.4363252876        0.9602212657
 C       -12.0029377774       -3.4255459005        6.0823622331
 C       -13.9774165358       -1.7813443891        6.3934546561
 C        -9.8325889616        3.7835619489        8.7050163644
 C       -10.7139540443        4.7148976407        6.6034871784
 H        -6.6539331214        3.9940046111        6.3919150538
 H        -7.2784627430        3.8888164778        8.1527884107
 H        -7.6733543830        5.1947554270        7.2391384052
 H       -10.5878313117        1.3022590450        8.8935208949
 H        -9.5912165967        0.6786762681        7.5367329062
 H       -12.6676315416       -0.1118296666        7.5950232686
 H       -11.5971940044       -0.9437892190        8.5652753636
 H       -14.2831641505       -0.5592801740        4.1164044795
 H       -14.4816637929       -1.9854688378        3.1928750292
 H       -14.1462694243       -0.0359240973        1.5622868795
 H       -12.9278795539       -1.3583803834        1.5366481375
 H       -10.2469836877        4.2555301283        0.3494200459
 H       -10.4315035572        2.7520716234       -0.4632163134
 H        -8.1743039183        2.4743994379       -0.7411885044
 H        -7.8521358471        3.2375061791        0.8409784806
 H        -9.1505147605        3.0963008520       -2.3566879159
 H        -8.3793252738        1.6125658303       -2.8727171024
 H        -9.9978989193        1.6702239288       -4.7734846045
 H        -8.8969862139        2.8636780820       -5.3323319563
 H        -8.4316193903        5.0342973151       -7.2751872991
 H        -8.3705419633        4.6540364613       -5.6163442043
 H        -7.1963354281        6.6853619065       -5.4272692862
 H        -8.7282660250        7.2293976706       -5.1320420856
 H        -9.1624292892       11.0238170346       -7.0539309088
 H        -9.6167763476       11.5430172401       -5.6459616388
 H       -10.0264911616        9.7307118136       -6.2005576334
 H        -5.5728496941        9.1312586083       -4.7017869368
 H        -4.9285448630        8.9623059442       -6.2850482474
 H        -5.6734281734        7.6670479987       -5.7171275631
 H        -5.6067901993       10.1153290129       -7.8446571796
 H        -7.1090040826       10.7398774606       -7.9159223956
 H        -6.9691564297        9.1597982465       -8.5867928713
 H       -11.2627812350        3.7081020654       -7.8905005491
 H       -12.0702429112        2.5852182861       -7.0107604074
 H       -10.3071401207        2.5477567765       -6.9841839843
 H       -12.9060748988        4.5845877802       -4.5401301003
 H       -13.3087545534        4.7209058075       -6.1960465837
 H       -12.3325559185        6.0200785678       -5.2851104657
 H        -5.6481852380        6.3840449296       -1.5342787282
 H        -7.1756436300        6.3909519720       -2.6121962998
 H        -5.8114004940        5.5771270576       -3.2936117199
 H        -4.8049764125        3.8027064946       -2.1709997261
 H        -5.9291661620        2.5689948681       -1.1646184152
 H        -5.1264672348        3.9223696424       -0.4501189438
 H       -10.9417625161        1.1614397865       -0.9040093783
 H       -12.0064747168       -0.0174329332       -0.3988643436
 H       -10.4253526870       -0.1858674819        0.3053482058
 H       -12.6318854932        3.1847289731        1.7113064072
 H       -13.5929713277        1.9355169145        0.9769735511
 H       -12.4504991750        3.1692565502        0.1336245590
 H       -12.2651003144       -3.7556425415        6.9859139810
 H       -10.9053509735       -3.5519358509        5.9475176451
 H       -12.5320315322       -4.2470589418        5.4767019341
 H       -13.8217384016       -1.8476199207        7.4476862940
 H       -14.7642670266       -2.5224719952        6.2037868415
 H       -14.2464950813       -0.6458573841        6.3050972991
 H        -9.0422071213        3.1564445899        9.1383046500
 H       -10.7476902467        3.5436194297        9.2409263887
 H        -9.5080915950        4.7962697870        8.7103869908
 H       -11.0559401394        5.3018761082        7.4556504894
 H       -11.6546276179        4.7572447837        5.9417539346
 H       -10.0122238722        5.3361360731        6.1183694518
 Na       -9.8859134637        1.0642724958        4.4768255522
