117

 C        -7.4201631626        4.3679938897        7.0596106660
 C        -8.5419636763        3.3313206902        6.7421125474
 O        -8.5030117757        2.5221366901        5.7931009402
 C       -10.0159593446        3.4976037512        7.3255919851
 C       -10.8575606068        2.1192956531        7.1067096493
 O       -11.6702168373        2.1813149378        6.2162270769
 C       -10.9010742235        0.9022259126        8.0991500202
 C       -11.9820997420       -0.1760616025        7.6228596453
 C       -11.5147185073       -0.7827671435        6.2423869809
 O       -10.4334160005       -0.6001814856        5.6926110037
 C       -12.5670096155       -1.8931035527        5.7543859178
 C       -12.5589482888       -1.7030136877        4.1252799116
 O       -11.8139937915       -2.1356758667        3.3222031840
 C       -13.6258574334       -0.7334815371        3.5591863609
 C       -13.2331196457       -0.2748094371        2.1676765641
 C       -12.1638197574        0.7508213388        2.2056738432
 O       -11.7992484455        1.2039282775        3.3353375757
 C       -11.6686011780        1.3530028957        0.8539924260
 C       -10.1794561862        1.9943637704        1.2501601269
 O        -9.5255132918        1.6764386694        2.2722000296
 C        -9.5622631779        3.0519141893        0.4132441579
 C        -8.0634897393        3.2153553978        0.1753903912
 C        -7.6388165526        4.5551080256       -0.7724928620
 O        -8.0921420183        5.6208201736       -0.5459268247
 C        -6.6315932758        4.2032811608       -1.9929114307
 C        -7.4913512052        3.4717111826       -3.2009888702
 O        -6.8176017731        3.0658692460       -4.1855851017
 C        -8.9055553551        3.0754908112       -2.9997816285
 C        -9.7688260566        2.7635142489       -4.3423853117
 C       -10.9931768919        3.8465473933       -4.3658053554
 O       -11.3868013347        4.2121231928       -3.3030057711
 C       -11.4498282938        4.3692420244       -5.7707875938
 C       -10.4836062099        5.5442744915       -6.4654462837
 O       -10.8181258241        6.5989690189       -6.9375853386
 C        -8.8918877800        5.2920759817       -6.3219634192
 C        -8.1263932421        6.5664807140       -5.7404604635
 C        -7.5515053126        7.3680579024       -7.0234158170
 O        -7.5979820625        7.0345183566       -8.1677595568
 C        -6.8694587269        8.7147130847       -6.5407268175
 C        -7.8073692687        9.5961131751       -5.5820811493
 O        -7.3205915371       10.0748924082       -4.6027418704
 C        -9.3126887903        9.8046812163       -6.0680220186
 C        -5.4417800294        8.5025135590       -6.0592457385
 C        -6.6220263593        9.6631931203       -7.7598835445
 C       -11.4957168988        3.1005029851       -6.7832189985
 C       -12.7562287702        5.0556650121       -5.4618356673
 C        -6.2376355228        5.5140578425       -2.6692556165
 C        -5.3766771321        3.4589569913       -1.5673224381
 C       -11.4560551544        0.1511453414       -0.1765136912
 C       -12.7777100742        2.3894752235        0.3239470041
 C       -11.8092664619       -3.1137853289        6.3955339891
 C       -14.0458847464       -1.7259147897        6.4766351945
 C       -10.0368177403        4.0679197664        8.7906274886
 C       -10.6520523948        4.4950748528        6.3847500685
 H        -6.9591980352        4.6467875509        6.1315002799
 H        -6.7165961677        3.8763712814        7.6834545617
 H        -7.5324770004        5.1638177574        7.6977977255
 H       -11.1240127141        1.1912255789        9.1335784120
 H        -9.9208889460        0.5629995425        8.0873030569
 H       -12.9609439540        0.2427761465        7.4846800538
 H       -12.1407080579       -1.0550576696        8.4116517710
 H       -13.8393829320        0.2079211652        4.1746143225
 H       -14.5940471447       -1.1243264227        3.6562974368
 H       -14.1060734897        0.0969137131        1.6105601739
 H       -12.8771293713       -1.1694334797        1.5696323744
 H       -10.1401575417        3.8953881297        0.8821384561
 H       -10.0092692001        2.9578014124       -0.5939634070
 H        -7.9201507473        2.2841178843       -0.2856448017
 H        -7.3965956552        3.4442475709        1.0731096890
 H        -9.3444533315        3.9437735034       -2.5416435143
 H        -8.9874760196        2.2269831629       -2.3417374776
 H       -10.0391892806        1.6989156035       -4.4436547467
 H        -9.0106890905        2.9293745148       -5.1422238315
 H        -8.3874087333        5.0374959905       -7.3383762151
 H        -8.7330464160        4.4611248035       -5.7004786056
 H        -7.3587040657        6.1718495266       -5.0654712094
 H        -8.6202531909        7.4125566671       -5.2078949402
 H        -9.3019612876       10.6713500221       -6.7502322400
 H       -10.1551721396       10.1880275597       -5.4759387374
 H        -9.4199404143        8.9349944146       -6.6511860577
 H        -5.2790384518        7.4477634139       -5.8147594466
 H        -5.3966588006        8.9902303951       -5.0158131464
 H        -4.7217086808        8.7970050412       -6.8391249760
 H        -6.2430012398        9.0050404469       -8.6024049924
 H        -5.7367668498       10.3147586955       -7.5844175590
 H        -7.5304414355       10.1587782270       -8.1991813017
 H       -11.8367666612        3.5676805973       -7.6220823939
 H       -12.4138203672        2.5231629878       -6.4687753206
 H       -10.6736962580        2.2502885245       -6.8350525192
 H       -13.4425516301        4.4481035901       -4.8881987483
 H       -13.1918599551        5.3204653179       -6.4902457948
 H       -12.4087173363        6.0589038143       -5.0487611790
 H        -6.3511861080        6.3277396473       -1.8749189023
 H        -6.9458729819        5.7998161183       -3.3725049645
 H        -5.2240447208        5.4872814108       -2.9985444429
 H        -4.8758737571        3.1052412476       -2.5099269051
 H        -5.6657110803        2.5528881061       -0.9428593669
 H        -4.7534410170        4.1291708127       -0.9094160950
 H       -10.8691195247        0.6490488705       -1.0304889801
 H       -12.4439866590       -0.1569598365       -0.6043007498
 H       -10.8058236651       -0.5908997151        0.3426829352
 H       -13.7884077509        2.3443883498        0.6736916130
 H       -12.7490018997        2.3950140532       -0.7447717519
 H       -12.4351347322        3.3346983169        0.7856183391
 H       -11.5310386791       -3.0685365824        7.4325013197
 H       -10.9462792772       -3.3877813580        5.6467431933
 H       -12.4683497063       -4.1219802573        6.2256334757
 H       -14.0620816055       -2.1691641447        7.4317522507
 H       -14.6223383699       -2.3555218331        5.8906483880
 H       -14.5839276952       -0.7459832897        6.2594510459
 H        -9.5977675957        3.3828240066        9.5211481727
 H       -11.0785488679        4.3053022116        9.0527909044
 H        -9.4910199367        5.0278087275        8.7802787461
 H       -11.7109495244        4.5525497945        6.3731774086
 H       -10.3629659716        4.4514808410        5.3156212069
 H       -10.2774792839        5.5000312362        6.6266869334
 Na       -9.6459999012        1.1396455311        4.4893382025
