117

 C        -7.5416017442        4.3238448094        7.1298863555
 C        -8.5893209464        3.3470843568        6.7456233499
 O        -8.2773045233        2.7068601502        5.7757762818
 C       -10.0212020383        3.4838219736        7.3244782110
 C       -10.9588154301        2.2172424625        7.1861834767
 O       -11.6646423432        2.1023151719        6.2118887333
 C       -11.0031322176        0.9515699351        8.1249323431
 C       -11.9805908015       -0.0705154913        7.5141883920
 C       -11.6235764043       -0.6872016853        6.1806264921
 O       -10.5717601452       -0.4417396800        5.5461599621
 C       -12.5097975253       -1.8646164713        5.6674073277
 C       -12.6422124863       -1.6009437251        4.2630384415
 O       -11.6819034302       -2.0246393152        3.5741813594
 C       -13.6381624295       -0.5912420616        3.7179150358
 C       -13.3672050904       -0.2530066073        2.2610936841
 C       -12.2383332719        0.8336623513        2.2068953694
 O       -11.9046994439        1.4262786753        3.2009114333
 C       -11.5357203807        1.3288933473        0.8207024619
 C       -10.1586818558        2.0036754564        1.1920998807
 O        -9.6297669335        1.5944296484        2.1866292627
 C        -9.5859686605        3.1545650529        0.2630399168
 C        -8.0668858368        3.1601877227        0.1544386810
 C        -7.5770289030        4.3528494256       -0.6674179175
 O        -7.8942630802        5.5202415365       -0.4155249760
 C        -6.7564203159        4.0813329529       -1.9832309049
 C        -7.4669545371        3.2938652958       -3.0348319001
 O        -6.9079239852        2.9908156180       -4.0651411443
 C        -8.9796582631        3.1009416260       -2.8850628444
 C        -9.8390749090        2.9383154523       -4.2875784529
 C       -10.9296282067        4.0197713808       -4.4345848239
 O       -11.5189597252        4.2808455155       -3.4138813509
 C       -11.4992656257        4.4103733389       -5.8051804715
 C       -10.4676820848        5.5571201885       -6.3610393523
 O       -11.0103140397        6.5137997758       -6.8583032991
 C        -8.9283374121        5.2765544311       -6.3168666046
 C        -8.0899798929        6.4998500156       -5.9337793367
 C        -7.4296731492        7.3447395636       -6.9653620395
 O        -7.4485622691        6.8919078710       -8.1216903029
 C        -6.7173888151        8.6937371362       -6.6458091205
 C        -7.6579729493        9.4141984286       -5.6977211482
 O        -7.3795652009        9.9433115754       -4.6328616246
 C        -9.1613204936        9.5497028612       -5.9808854683
 C        -5.3789809557        8.4280628857       -5.9509537611
 C        -6.6913898677        9.6197874047       -8.0098648215
 C       -11.6027216959        3.1712932842       -6.6488387218
 C       -12.8774813030        5.0441322547       -5.5494083862
 C        -6.3229731214        5.4753948655       -2.5979387587
 C        -5.3865131858        3.3351408677       -1.6585075010
 C       -11.4034785783        0.2602082347       -0.2191966270
 C       -12.4642557225        2.3988089844        0.1966036322
 C       -11.8884393548       -3.1281532487        6.2504689281
 C       -13.8222744548       -1.7225223024        6.4148775085
 C        -9.9199361147        4.0918212402        8.8293346339
 C       -10.6146880594        4.4812928607        6.2726099051
 H        -7.1289144231        4.7490976744        6.2489707009
 H        -6.7735462460        3.7834909091        7.7290331161
 H        -7.6478677925        5.0789100690        7.9218088762
 H       -11.5793141115        1.1907129903        9.0593800696
 H        -9.9917869842        0.5816772170        8.4403644513
 H       -12.9982444107        0.4088361615        7.3716979882
 H       -12.1296406862       -0.8991853187        8.2272491347
 H       -13.6302448830        0.3482878826        4.2745831774
 H       -14.6762914499       -0.8586594556        3.9838812858
 H       -14.2853229599       -0.1361661363        1.6487353951
 H       -12.8393222433       -1.1280517990        1.8056816811
 H        -9.8698719398        3.9308601468        0.9119215512
 H       -10.1620054377        3.3343739147       -0.5791978156
 H        -7.7485143542        2.1075859820       -0.0994684529
 H        -7.7623727541        3.5352037533        1.1307228770
 H        -9.4457153116        3.8364640765       -2.3403691793
 H        -9.1056745807        2.1439625502       -2.4351600932
 H       -10.3455000194        1.9716016560       -4.2645946874
 H        -9.1301596625        2.8500437825       -5.1022558392
 H        -8.7823255644        5.0316840991       -7.4129076182
 H        -8.6460545185        4.4148188875       -5.7598865404
 H        -7.2104611851        6.0016375144       -5.4634467459
 H        -8.4952789693        7.1824198149       -5.2215442440
 H        -9.2920354254       10.5067021343       -6.3648298148
 H        -9.9197498264        9.6568501067       -5.1741895638
 H        -9.3768719047        8.8198602948       -6.7256388120
 H        -5.0793019545        7.3647541956       -6.0126343103
 H        -5.4613297161        8.6386510004       -4.9279438760
 H        -4.6671915824        9.0005371722       -6.4838839177
 H        -6.8079715583        9.1241560271       -8.9830090428
 H        -5.8094204224       10.2276479616       -8.0537837465
 H        -7.6394026067       10.2159167189       -7.9664966092
 H       -12.3757047033        3.3724176752       -7.3979490525
 H       -11.9152790849        2.3209350844       -6.0784535066
 H       -10.6662776123        2.8656709042       -7.0262393790
 H       -13.5755733094        4.2157832172       -5.5591255030
 H       -13.0589268756        5.6488492885       -6.4222397825
 H       -12.8749382147        5.7623075497       -4.6518252797
 H        -6.0273961450        6.2567380572       -1.8533008875
 H        -7.1514224398        5.9574000531       -3.1669346985
 H        -5.3981373702        5.1760568582       -3.1847162022
 H        -4.8686637870        3.0968215674       -2.6379149851
 H        -5.5458882747        2.3475981083       -1.1609222679
 H        -4.8301555331        4.0804491264       -0.8864409726
 H       -10.5854683607        0.6132242699       -0.9816063719
 H       -12.4161060670        0.2005876014       -0.7355125873
 H       -11.0111232480       -0.6662456681        0.3194514618
 H       -13.3907075012        1.9302990510       -0.0091291603
 H       -12.0064390671        2.6713660890       -0.7938033744
 H       -12.7498305821        3.2489101910        0.8458876413
 H       -11.8472122759       -3.2043383258        7.3668848957
 H       -10.9345804621       -3.3961707903        5.7492190669
 H       -12.5047278194       -3.9779045867        5.8199803537
 H       -13.6757856238       -1.7466593424        7.4486608172
 H       -14.5669218755       -2.5122805714        6.0671588315
 H       -14.2756919585       -0.8587616046        5.9541690664
 H        -9.4331313007        3.3340323726        9.5031133183
 H       -10.9674362895        4.2850298387        9.1649487158
 H        -9.4364107802        5.0574600054        8.8840925897
 H       -11.7127176124        4.4462199034        6.1871098100
 H       -10.2284970306        4.4254097251        5.1800485558
 H       -10.3959040102        5.4460483995        6.4856795057
 Na       -9.6146836661        1.1674145981        4.6007435705
