117

 C        -7.3465723598        4.2782130054        7.4723215897
 C        -8.5320394697        3.4809006970        6.7632464002
 O        -8.3237994190        2.6748391083        5.8759473372
 C       -10.0795379499        3.6860115911        7.2252089293
 C       -11.0136735776        2.4554606407        6.8278432423
 O       -11.3593120954        2.3596435744        5.6923989709
 C       -10.9583123206        1.2233137663        7.9282828697
 C       -11.8857604414       -0.0035979975        7.9473272809
 C       -11.6196197113       -0.5995219652        6.5004282408
 O       -10.5429221653       -0.2492052453        6.0019064158
 C       -12.5864408968       -1.7420997770        5.7969491237
 C       -12.6193801674       -1.3886481977        4.2304997224
 O       -11.6924227387       -1.8003652093        3.5138795007
 C       -13.7068226970       -0.4618919241        3.5328846934
 C       -13.2686332003        0.1368590578        2.1953948196
 C       -12.2503022427        1.2336424087        2.2420881984
 O       -12.1334548634        2.0105150884        3.2094149504
 C       -11.5203661112        1.4896385133        0.8707047400
 C       -10.0724249208        2.1543249074        1.3593595016
 O        -9.5243651892        1.3630394674        2.1103531497
 C        -9.2657688856        3.1806748753        0.5962819207
 C        -7.9191279207        2.7349902406        0.1913463239
 C        -7.3787125857        4.0146751301       -0.4736498496
 O        -7.4310271169        5.0532520263        0.1010124655
 C        -6.8174420927        3.9086379523       -1.8893783389
 C        -7.7896928722        3.1113370385       -2.9653578924
 O        -7.1918224605        2.5693306209       -3.8986413068
 C        -9.3303934370        3.1724477414       -2.7605890841
 C       -10.0801119594        2.8884640260       -4.1150258059
 C       -11.0743336716        4.2744419057       -4.3667713794
 O       -11.6037030955        4.6135561652       -3.3539857426
 C       -11.4970628906        4.5797691989       -5.7143429349
 C       -10.6416870507        5.5725617194       -6.3615856665
 O       -10.9840351809        6.7223177149       -6.4514425207
 C        -9.1369221449        5.2086183054       -6.8505849473
 C        -8.0877124058        6.1026692889       -6.1681538352
 C        -7.3243931581        6.8931736059       -7.1824746847
 O        -7.0145606408        6.4069914099       -8.3091372369
 C        -6.6865412038        8.4006000791       -6.7921896832
 C        -7.7251581169        9.1496997098       -5.7710029675
 O        -7.2555197419        9.4450511476       -4.6675629767
 C        -9.2031113569        9.3322369503       -6.0240294300
 C        -5.1696125142        8.2469221882       -6.2431454397
 C        -6.6252088003        9.3187683491       -8.0877256357
 C       -11.3321455326        3.3583699721       -6.6519503807
 C       -13.0835447209        4.9934473440       -5.7371850501
 C        -6.3444009071        5.3259325138       -2.5034511333
 C        -5.5374679703        2.9777048125       -1.6835353502
 C       -11.1015095686        0.1777756646        0.0414004193
 C       -12.4808426522        2.3852132269        0.0821188346
 C       -11.9671648495       -3.1746931102        5.8946528180
 C       -14.0168543218       -1.8843400463        6.3741959856
 C       -10.0794670342        4.1037896700        8.7206839045
 C       -10.6072066642        4.9369359260        6.4840695084
 H        -6.5150053784        4.3234511980        6.8240362986
 H        -7.0868616796        3.6655881455        8.3224381884
 H        -7.3942375715        5.1955216951        8.0231877121
 H       -10.7919802915        1.6262655739        8.9250183158
 H       -10.0932078852        0.7705836733        7.6068432200
 H       -12.9147899123        0.2356115559        8.1284851034
 H       -11.4612345582       -0.8422359286        8.6429687481
 H       -14.0441591993        0.2968594556        4.3045298908
 H       -14.6180895478       -0.9541941900        3.3753074368
 H       -14.0383810657        0.3263713689        1.4658364851
 H       -12.7772560276       -0.7397714533        1.7157409725
 H        -9.1090458813        4.2537144539        1.0282748324
 H       -10.0317293690        3.3687625460       -0.1945963381
 H        -7.9807159944        1.9165070188       -0.4803666248
 H        -7.4096083059        2.3752794861        1.1413483754
 H        -9.5311065113        4.2729310332       -2.6964602807
 H        -9.5780931264        2.5825824950       -1.8154471982
 H       -10.5543997503        1.8994523342       -4.1804976794
 H        -9.1866215696        2.8397278650       -4.7982000510
 H        -9.1204262212        5.1814362133       -8.0112829446
 H        -8.9859871450        4.2276797946       -6.6251480839
 H        -7.1877240618        5.5144460009       -5.8824766575
 H        -8.5847240068        6.6805998207       -5.3459033174
 H        -9.5127776411       10.2622748397       -5.5283990411
 H        -9.9235712460        8.6063463829       -5.4411124324
 H        -9.4672865945        9.3555275136       -7.0818926709
 H        -4.5009371286        8.4567534763       -7.1296121479
 H        -4.9979833793        7.1876968012       -5.8768816124
 H        -5.0140014694        8.9659218841       -5.4054379607
 H        -6.4382718651        8.7304486225       -9.0038546357
 H        -6.1252337035       10.3022010265       -8.0295853990
 H        -7.6745699612        9.5497724334       -8.4047169113
 H       -11.9712092818        3.6340837956       -7.5180269885
 H       -11.9330172226        2.4664256798       -6.1821299296
 H       -10.3587030393        2.9560773021       -7.0349216192
 H       -13.7052873105        4.1536703641       -5.9711473088
 H       -13.1737186076        5.8880823529       -6.3327541120
 H       -13.2477020839        5.3739483885       -4.6517533460
 H        -5.2519386952        5.2267609163       -2.5459022788
 H        -6.5371281211        6.0721914355       -1.8420979151
 H        -6.6333879761        5.5036895842       -3.4917710951
 H        -5.1801141260        2.7285392087       -2.6208560043
 H        -5.7033408701        2.0279445953       -1.3758587986
 H        -4.7865452457        3.5517725495       -1.0224217779
 H       -10.5708798168        0.5216559907       -0.8074675012
 H       -12.0221792015       -0.2768260758       -0.0370771816
 H       -10.3882012670       -0.4173511091        0.5009968333
 H       -13.3528315114        1.7883165083       -0.1634009381
 H       -11.9835483235        2.8179310960       -0.7787097015
 H       -12.7706148968        3.3349748673        0.6714156120
 H       -11.7580147138       -3.3299638266        6.9640515942
 H       -10.8761009724       -3.1788456210        5.5722023932
 H       -12.4033121848       -3.9592032355        5.1910545852
 H       -13.8653644203       -2.2588029268        7.3397535803
 H       -14.7729317436       -2.3479404010        5.7320039458
 H       -14.4157254738       -0.8346640952        6.5237444061
 H        -9.5742551585        3.3199271906        9.2461710937
 H       -11.0644034588        4.2800782094        9.0922556049
 H        -9.5825691126        5.0214164146        8.9070745766
 H       -11.1822008521        5.5612552152        7.1337157661
 H       -11.2456659776        4.8639520338        5.4970319380
 H        -9.8992532563        5.6211274979        6.1676946352
 Na      -10.0584897364        1.7838882602        4.1865865565
