117

 C        -7.3681019945        3.4381167345        7.5760385795
 C        -8.7040888979        3.6137775215        6.8971089959
 O        -8.8199579354        3.3513656021        5.6769206331
 C        -9.9006391652        4.0804183150        7.7197717199
 C       -11.1409753127        3.0143818501        7.5433973869
 O       -11.9941024465        3.3144838979        6.6720947277
 C       -11.3906318964        1.7197107580        8.2598661441
 C       -12.2607875543        0.8060790177        7.4184468384
 C       -11.6461765985        0.0241877633        6.1920279669
 O       -10.8027005867        0.5742838818        5.4930849300
 C       -12.4009569620       -1.3240332662        5.5963038754
 C       -12.7303731957       -0.8682390782        4.1244258950
 O       -11.8879761325       -0.9243501256        3.2973194980
 C       -13.9248742322        0.1110365384        3.8643821108
 C       -13.7019674315        0.6041454766        2.3804969940
 C       -12.4391366494        1.5395828043        2.2770979207
 O       -12.3801943466        2.4960009164        3.0763071282
 C       -11.2561904070        1.3507946169        1.1678746097
 C        -9.8728854632        1.9408830906        1.8597719473
 O        -9.5348892524        1.6142858495        2.9949900880
 C        -8.9786837998        2.8971301922        0.9323067777
 C        -7.8760541112        2.0916039321        0.1157139101
 C        -6.9898404850        3.1208718712       -0.4469117947
 O        -6.8091634515        4.1463812279        0.2213457831
 C        -6.5579018479        3.1539150506       -2.0347617551
 C        -7.9789907331        2.9628009190       -2.6840238629
 O        -8.3926763808        1.8299400100       -2.6095854907
 C        -8.7288656036        4.0625076365       -3.5056062530
 C        -9.9075866028        3.4460069321       -4.0608772126
 C       -11.2903768625        4.1565205779       -4.2878377919
 O       -12.0652369832        4.2014831379       -3.3828938820
 C       -11.6988707999        4.7270875074       -5.7635747982
 C       -10.3741845019        5.5937544043       -6.5253644025
 O       -10.3824941383        6.8008705838       -6.3801657881
 C        -9.2449199556        4.8603552034       -7.2290451194
 C        -7.8920326095        5.5013183883       -6.9470254391
 C        -7.2517904628        6.4356079086       -7.9682103504
 O        -7.3074436847        6.1147550531       -9.1168683353
 C        -6.4939480059        7.6728865494       -7.3056501423
 C        -7.4569326027        8.2312471612       -6.2000551955
 O        -7.3974975725        7.7445549188       -5.1008775319
 C        -8.2715426348        9.4478177980       -6.4323909700
 C        -5.1450845399        7.0540792805       -6.6241043890
 C        -6.3142914209        8.6842661518       -8.4252931100
 C       -12.0484348685        3.3914975793       -6.6530375744
 C       -12.8925250542        5.7052100602       -5.5498349190
 C        -5.9223574155        4.5672420936       -2.2750823403
 C        -5.6201717971        2.0799477175       -2.4366491411
 C       -11.0276546666       -0.0973252421        0.5798021411
 C       -11.6889648027        2.2248802348       -0.0205159636
 C       -11.4345002578       -2.5331941901        5.4984743697
 C       -13.6956023957       -1.3495068105        6.4271499705
 C        -9.6183906891        4.2668560861        9.2164599809
 C       -10.4795281562        5.2923452988        6.9855253236
 H        -6.3965728711        3.1464627751        7.0940728750
 H        -7.5021640323        2.6509403586        8.3269431268
 H        -7.0173379215        4.2978835184        8.1518067315
 H       -11.8058012073        1.9274456624        9.1670434936
 H       -10.4960181451        1.1316288028        8.4335456082
 H       -13.0437510198        1.5520193073        6.9714229695
 H       -12.6509267133        0.1322152733        8.1487606251
 H       -13.7715435424        1.0152227062        4.3569082985
 H       -14.9417538725       -0.3406245192        3.9483427473
 H       -14.5532302267        1.2422108488        2.1314629266
 H       -13.5972659648       -0.0934689529        1.5798750336
 H        -8.5500031853        3.6275729620        1.6916487679
 H        -9.4943097087        3.5226598290        0.1192411077
 H        -8.3582245223        1.3254758858       -0.5752661772
 H        -7.1986357364        1.5259361621        0.6776144592
 H        -7.9810840595        4.7210373513       -4.0098578742
 H        -9.1684220338        4.9503635895       -2.9031224933
 H       -10.1516762652        2.5934236559       -3.3927626156
 H        -9.7091627458        2.9010026337       -4.9997638913
 H        -9.5657027727        4.8072390699       -8.2510326509
 H        -9.1270882852        3.7678844441       -6.7890229456
 H        -7.0338784682        4.7514323243       -6.8862899082
 H        -7.9745251345        5.8909354260       -5.9028910850
 H        -9.0676226703        9.7170735190       -5.6542586408
 H        -8.5701842892        9.5275579886       -7.4353249421
 H        -7.8231795019       10.4614460060       -6.2823363139
 H        -4.2427612554        7.4176536896       -6.9640181823
 H        -5.2292450248        6.0124477136       -6.6799470237
 H        -5.3333574132        7.3232409170       -5.5757470246
 H        -5.6203142045        8.3257123140       -9.1344835221
 H        -5.7393857244        9.5473457689       -8.1713751206
 H        -7.1545662519        9.0780868429       -8.9024163982
 H       -11.8794273293        3.4634163644       -7.6989728442
 H       -13.1035390095        3.0437491241       -6.6167433969
 H       -11.3921090168        2.5569776531       -6.1064974156
 H       -13.8478762233        5.1941764263       -5.6059612511
 H       -12.9188538549        6.4989025827       -6.3085772152
 H       -12.7075439878        5.9840473741       -4.5404279997
 H        -6.5335445826        5.3952394635       -1.8115324626
 H        -5.7259882670        4.8606146806       -3.3158121883
 H        -4.9516242487        4.5017235419       -1.8468172702
 H        -5.2760984803        2.4171743835       -3.3178877939
 H        -6.0254271519        1.1462450841       -2.3601787087
 H        -4.7352211079        2.0032985335       -1.8108108460
 H       -10.2990199295        0.0065112212       -0.1499106725
 H       -11.7834281848       -0.4711976885       -0.0696227622
 H       -10.8353722572       -0.7114031007        1.4155215662
 H       -12.5622199299        1.8051417926       -0.5624211093
 H       -10.8367783267        2.2233159892       -0.7224184542
 H       -12.0938082351        3.1787315130        0.2762298968
 H       -11.2175918089       -3.0350894662        6.3955239987
 H       -10.5444083109       -2.2157234582        4.8456251517
 H       -11.9657420086       -3.4589474427        4.9102674028
 H       -13.4045205547       -1.4590273353        7.5101188521
 H       -14.1872347084       -2.2618276299        6.3273269763
 H       -14.3699668148       -0.4941134688        6.2868368473
 H        -9.2685016152        3.4212006181        9.8621694641
 H       -10.5989357101        4.6322719425        9.5856703287
 H        -8.9032464010        5.1049078797        9.3952707160
 H       -11.3534545430        5.7592827390        7.3067422451
 H       -10.8009643329        5.0366692689        5.9273689923
 H        -9.8203918327        6.1782707387        6.8019355837
 Na      -10.7723705965        2.5976265669        4.5058885989
