117

 C        -7.4134933249        3.5998252700        7.7030772822
 C        -8.7393857537        3.5278607743        7.0619584032
 O        -8.7688479651        3.4228280765        5.8527467279
 C       -10.0054823257        3.9330646868        7.9521961607
 C       -11.2482879968        3.1486116759        7.4304227621
 O       -11.9284204097        3.6331763333        6.5304876856
 C       -11.6173245348        1.9305579355        8.3365175769
 C       -12.5521503585        0.7663332930        7.7713338629
 C       -12.0357545864        0.3391547560        6.4532195309
 O       -11.0982506449        0.8645464495        5.8413004394
 C       -12.5679025855       -0.9038524686        5.7437631516
 C       -12.5279067839       -0.6304313196        4.1843908374
 O       -11.7561875550       -1.2029068631        3.4257185354
 C       -13.7124903243        0.1123807799        3.7461194388
 C       -13.6032787792        0.6883416513        2.2849147673
 C       -12.3965678533        1.6441198927        2.2543122475
 O       -12.4752215335        2.6251136591        3.0425601660
 C       -11.2859130148        1.4640451932        1.1287910849
 C        -9.9954700032        2.1792407592        1.7248582388
 O        -9.5706600829        2.0126549373        2.8525458804
 C        -9.0946146088        3.1425784130        0.8540090820
 C        -7.7585097563        2.3341407940        0.4570140024
 C        -6.7703498245        3.1949120567       -0.3695381016
 O        -6.0196844241        3.9335863079        0.1900946119
 C        -6.7728771541        2.8762390505       -1.9357673450
 C        -8.1650518272        2.6251876518       -2.6194260452
 O        -8.7601789740        1.6338607289       -2.2130427219
 C        -8.8475959025        3.6323243803       -3.7195730909
 C        -9.9931353120        3.1207066522       -4.4430104993
 C       -11.1366590297        4.1435898628       -4.5333559204
 O       -11.6710815410        4.4058045684       -3.4943175154
 C       -11.4622053525        4.8512863618       -5.8940277356
 C       -10.1967743804        5.5029299675       -6.6684244872
 O        -9.9345236486        6.6758636447       -6.5220481844
 C        -9.4804261422        4.5597610297       -7.6237995151
 C        -7.8950569174        4.8441065936       -7.4422919807
 C        -7.5430025948        6.2482871746       -8.0860105754
 O        -8.1513843561        6.6611711270       -9.0786987395
 C        -6.4542862780        7.1987743022       -7.5318637010
 C        -7.2208143092        7.8678316888       -6.3184663180
 O        -7.2677218095        7.4338366683       -5.1617489612
 C        -7.9156923616        9.2272148169       -6.5644265921
 C        -5.3857343154        6.4048280835       -6.8483992242
 C        -6.0478176823        8.1635167206       -8.5807398682
 C       -12.3556046964        3.9897190797       -6.8086757265
 C       -12.3689530796        6.1343898209       -5.4147147366
 C        -5.9181631311        3.9279000105       -2.6166257349
 C        -5.9622114313        1.5344131256       -2.0338520735
 C       -11.0088145991       -0.0289483268        0.6759145207
 C       -11.6699228707        2.2206999226       -0.1213419408
 C       -11.4368610554       -1.9129747148        6.1622467577
 C       -13.9484854563       -1.3119684677        6.1940114719
 C        -9.7730724415        3.8361542252        9.4554069523
 C       -10.1509794100        5.4688849293        7.6068056253
 H        -6.7391334835        3.6902211692        6.8034821924
 H        -6.9393149772        2.7349689798        8.2177744407
 H        -7.1102797415        4.5151887877        8.2003342422
 H       -12.0588392585        2.3045970149        9.1958928361
 H       -10.7520320022        1.4577945972        8.8324706889
 H       -13.5052159909        1.3444744443        7.6521318190
 H       -12.6573282116        0.0401874256        8.5233132766
 H       -13.9385286502        0.7865535675        4.4921993061
 H       -14.4391583443       -0.7013344265        3.5526017760
 H       -14.4308310405        1.3616121253        2.0399651831
 H       -13.5226655324       -0.1507216569        1.6385335739
 H        -8.7898283891        4.0824575316        1.3373410439
 H        -9.7405814883        3.4245569689        0.0245081525
 H        -7.9979805896        1.4190214699       -0.0748473829
 H        -7.4564421814        2.1422706704        1.4614874515
 H        -8.2048367408        4.3879254794       -4.2389942656
 H        -9.1498129428        4.4092389716       -2.9022134838
 H       -10.4274586154        2.3627542901       -3.8431012417
 H        -9.7189028290        2.5227416882       -5.2795553469
 H        -9.6223165822        4.8144635958       -8.6192543814
 H        -9.6637460903        3.4525448120       -7.4945451605
 H        -7.3137753011        3.9563231902       -7.7443956267
 H        -7.5681475613        5.0961000591       -6.4309484435
 H        -8.5638316936        9.5976299215       -5.7040944773
 H        -8.4999399368        9.2313303396       -7.4812381182
 H        -7.2427460053       10.0876746482       -6.7400484235
 H        -5.8384462563        5.6007358400       -6.3648786109
 H        -4.8259672950        7.0100116654       -6.1414205228
 H        -4.6472044919        6.1631771693       -7.6524419491
 H        -5.4692850158        7.7186698854       -9.3907538612
 H        -5.3130526376        8.9030916871       -8.2437218948
 H        -6.8104449111        8.6136003402       -9.1162925247
 H       -12.0672647182        2.9995211061       -6.6693912742
 H       -12.0766253996        4.1496000638       -7.8850002539
 H       -13.4603532544        4.1884521771       -6.7451542420
 H       -12.9025056196        5.8770506604       -4.5974442613
 H       -13.1674276591        6.1582433186       -6.0614633952
 H       -11.6996952343        7.0154131530       -5.3182454152
 H        -5.3374968847        4.3459688938       -1.6585851678
 H        -6.5127524792        4.8101153124       -2.9569765336
 H        -5.1713634250        3.7669574820       -3.3771666617
 H        -5.9096617777        1.2801228003       -3.0408628960
 H        -6.3943485555        0.7487750783       -1.5182079561
 H        -4.9502212187        1.6244297501       -1.5664262461
 H       -10.8965158221       -0.1646772813       -0.4460974742
 H       -11.9215412768       -0.6242076826        0.8597756974
 H       -10.1224204713       -0.3221533404        1.2818355182
 H       -12.7301837247        2.0702423738       -0.3527872326
 H       -11.0030743302        2.0011667595       -0.9505242661
 H       -11.7780293635        3.2663791200        0.1126759554
 H       -11.6078801852       -2.0593136222        7.3022159983
 H       -10.5074646611       -1.4100226381        5.9430607312
 H       -11.3990124642       -2.8933706379        5.7572838930
 H       -13.8352038677       -1.7498504090        7.2078564062
 H       -14.5064777400       -1.9277600436        5.5970765079
 H       -14.6719269317       -0.4140540660        6.1721442009
 H        -9.5548726961        2.8170878019        9.6949293200
 H       -10.6488859068        4.1657942449       10.0126161605
 H        -8.9643943873        4.5134803408        9.7904692827
 H       -11.0548128583        5.9554131168        7.9203776061
 H       -10.1771240321        5.6936418379        6.4346480713
 H        -9.3576075863        6.1390087590        7.8263691665
 Na      -10.5812492746        3.3055242092        4.2977848669
