117

 C        -7.3071914354        3.6299680299        7.8124830460
 C        -8.6350654490        3.6127907801        7.0132760254
 O        -8.7997442113        3.4526455338        5.8518422867
 C        -9.9551754588        3.9505347253        8.0506913957
 C       -11.2927545442        3.2622585389        7.7147259152
 O       -11.9354994975        3.4691946287        6.7071509961
 C       -11.8166910689        2.0462143159        8.5603009715
 C       -12.7124821598        1.0633167821        7.6020034142
 C       -12.0127074177        0.5900731092        6.2979148930
 O       -11.1024768107        1.1460320459        5.7675200454
 C       -12.5442144942       -0.8220241692        5.8739922697
 C       -12.6220065083       -0.7512932256        4.1741963415
 O       -11.6933116920       -1.3145612379        3.5832657358
 C       -13.7256059388        0.1483539472        3.7284274691
 C       -13.6855715079        0.6246443662        2.2219420426
 C       -12.4284586141        1.6177805469        2.1778735984
 O       -12.3818784721        2.5108083932        2.9957040989
 C       -11.2069797492        1.5679005889        1.1293712077
 C        -9.9528831523        2.2730701256        1.6138436958
 O        -9.4767501830        2.1742684543        2.7462819220
 C        -9.1069864932        3.2638533514        0.7386505988
 C        -7.7834932392        2.4464090416        0.5146094272
 C        -6.8107444691        3.1099027269       -0.3784384587
 O        -6.0251485181        3.8727744460        0.0838360661
 C        -6.7479162874        2.7203891537       -1.9104625293
 C        -8.1586534979        2.5413281691       -2.5226401154
 O        -8.9458774813        1.6277619988       -2.1378308784
 C        -8.7506844213        3.4772262024       -3.5526530908
 C        -9.9212997358        2.9830611094       -4.4703921804
 C       -11.0014815636        4.2336003394       -4.6184508979
 O       -11.6006965990        4.5493525739       -3.5739264461
 C       -11.4545532866        4.9629255914       -5.9020778143
 C       -10.1895368529        5.4369968533       -6.6816943737
 O        -9.7328877788        6.5206592841       -6.5170735356
 C        -9.5345479907        4.4988976822       -7.5958985548
 C        -8.0559453565        4.8541976021       -7.6113089271
 C        -7.7686035285        6.2815778070       -8.1124032865
 O        -8.3797715471        6.7706105717       -9.0576002841
 C        -6.4671230229        7.0670791861       -7.5148527931
 C        -7.2502093949        7.7653329915       -6.3021001479
 O        -7.1639278588        7.2308548478       -5.2011763693
 C        -7.8896800607        9.1295000506       -6.6588400007
 C        -5.2944550078        6.2567496528       -6.8857213342
 C        -5.9407370854        8.0409998722       -8.5645287683
 C       -12.2817496905        4.0829443193       -6.8279714906
 C       -12.3746468726        6.2839496476       -5.3934021806
 C        -5.9525859750        3.9204543906       -2.6758338654
 C        -5.9448298058        1.3462164333       -2.0588267408
 C       -10.8727688236        0.0290308030        0.7598404970
 C       -11.7140760228        2.4082889221       -0.1411396105
 C       -11.5795974065       -1.9848191723        6.0857375231
 C       -13.9816301303       -1.3060870749        6.3153768478
 C        -9.6277866781        3.8949406290        9.6012917724
 C       -10.2067307422        5.3848527495        7.6409795780
 H        -6.3149423495        3.5533564225        7.3300078690
 H        -7.2662331319        2.7683259575        8.5686831806
 H        -7.1915824605        4.6128160278        8.3108263943
 H       -12.2246061481        2.1143348236        9.5275493921
 H       -10.9998920610        1.4917821328        8.8815246205
 H       -13.5975891772        1.6810782377        7.4320904067
 H       -12.9931524653        0.2225351186        8.3482014265
 H       -13.6175725577        0.9361897270        4.4575707479
 H       -14.6573174753       -0.4183751187        3.7761574713
 H       -14.5497083187        1.2195383378        1.9450362985
 H       -13.5323587479       -0.2379423312        1.6297345098
 H        -8.8967914152        4.3322705354        1.0945537645
 H        -9.6798842354        3.3586647472       -0.2131928710
 H        -8.0725271456        1.5520924650        0.0175457795
 H        -7.4760359038        2.2802453939        1.6357763911
 H        -7.9062012627        3.8669242947       -4.1959444438
 H        -8.8189819412        4.4381008318       -3.0135946461
 H       -10.4303178821        2.0518384564       -4.1651889315
 H        -9.4495451548        2.5949596460       -5.3806965422
 H        -9.9210215444        4.5790518462       -8.7084227798
 H        -9.6343815727        3.4714912636       -7.2584286184
 H        -7.4247378096        4.1362352872       -8.1697029452
 H        -7.5894047509        4.8586984785       -6.5671718724
 H        -8.3816159008        9.7563688679       -5.9185950092
 H        -8.5373729926        9.1054563576       -7.6540988402
 H        -7.0126656504        9.7518254287       -7.0120053588
 H        -5.4543790121        5.2052750828       -6.8686356514
 H        -4.9549744316        6.6321816991       -5.9376148399
 H        -4.5742884242        6.5462364780       -7.5305998366
 H        -5.7321955097        7.4980942393       -9.4805542692
 H        -4.9641023742        8.4131836822       -8.3335127490
 H        -6.5145967138        8.8217045528       -9.0004202385
 H       -12.4015641689        3.0122582195       -6.4084190629
 H       -11.7837063908        3.9096139828       -7.8505750147
 H       -13.1711944421        4.5457401647       -7.1119727828
 H       -12.9659321959        6.0115897162       -4.5427110404
 H       -13.1790852470        6.4227648280       -6.0655344752
 H       -11.6387180889        7.0874826872       -5.2882447443
 H        -4.9318654455        4.0159337213       -2.3359792789
 H        -6.4060773659        4.9154359619       -2.6232806632
 H        -5.8412071155        3.7547069892       -3.7962753829
 H        -5.8812068810        0.9955997421       -3.0705789572
 H        -6.4542876145        0.4963707715       -1.6151603739
 H        -5.0586792344        1.4347710536       -1.5807294227
 H       -10.6769995573       -0.0242557544       -0.3022891450
 H       -11.8009431112       -0.4563111085        0.8349257773
 H       -10.0826087142       -0.3941243257        1.3456946036
 H       -12.6979827336        2.0045945356       -0.4314449198
 H       -11.0279037060        2.3007004528       -0.9613926681
 H       -12.0198160431        3.4724841001        0.0631656410
 H       -11.4577646884       -2.3970956828        7.2005268662
 H       -10.5893939390       -1.6000046105        5.5959783371
 H       -11.8964402061       -2.8402306620        5.4637038432
 H       -14.1068549921       -1.3063271596        7.3384886763
 H       -14.3052945513       -2.2701252580        5.8753994804
 H       -14.7500097807       -0.7039608406        5.8055918309
 H        -9.4402120480        2.8580400186        9.8760553672
 H       -10.6188320171        4.1521306566       10.0391091306
 H        -8.9203776405        4.6253755364       10.0523755175
 H       -10.8306083184        6.0885096155        8.2667095459
 H       -10.5699166660        5.5185938561        6.6834339955
 H        -9.3046501049        5.9440022353        7.4915951259
 Na      -10.6370889507        3.2575616996        4.2623643899
