117

 C        -7.4449378682        3.6362889175        8.1266977539
 C        -8.7263784658        3.8270682365        7.4396033005
 O        -8.9166480068        3.6406260377        6.2512543587
 C        -9.9601805960        4.2763307801        8.4127592855
 C       -11.2990646732        3.7980934390        7.7387593273
 O       -11.9621267928        4.3491358285        6.8583941346
 C       -11.5779137367        2.3634165040        8.1298295625
 C       -12.8331048662        1.7108680771        7.5528372281
 C       -12.3144133636        0.7309657820        6.3841375377
 O       -11.3799821567        0.9972651581        5.5883181881
 C       -12.8347584712       -0.8086151883        6.0112818094
 C       -12.7200565611       -0.7558907091        4.4462612062
 O       -12.1131932580       -1.5510196554        3.7785628788
 C       -13.7923701941        0.1086494715        3.5836543649
 C       -13.3413634243        0.4900698196        2.1667038901
 C       -12.3084871049        1.5634214309        2.2701599709
 O       -12.4525881146        2.4220400965        3.1082187818
 C       -11.2189259433        1.7560818660        1.2172305081
 C        -9.9336133798        2.8141571989        1.5207530281
 O        -9.8855343104        3.4563244362        2.5510490278
 C        -8.9668070195        3.3574001591        0.4245880225
 C        -7.6967028492        2.5394939215        0.2584030882
 C        -6.6657810480        3.0170717181       -0.8393202010
 O        -5.8754676565        3.9294537657       -0.6621641354
 C        -6.7035866498        2.3558551628       -2.3369538359
 C        -8.1593602836        2.4394735103       -2.7706475564
 O        -9.0570655542        1.7684201619       -2.2981757014
 C        -8.4954546585        3.4643861047       -3.8202398715
 C       -10.0639812496        3.2709030980       -4.1819416447
 C       -10.9859482269        4.5494270653       -4.2317526203
 O       -11.2955921406        5.1873123730       -3.3168656069
 C       -11.3144412252        4.9255427299       -5.7466774411
 C       -10.0131181644        5.0240828129       -6.5298012683
 O        -9.0898815229        5.6951212788       -6.1027656424
 C        -9.8775132824        4.5198988948       -8.0093880245
 C        -8.4052660376        4.5622586480       -8.5217895225
 C        -7.8486060183        6.0730224357       -8.4905117512
 O        -8.4330412555        6.9460221621       -9.0141476766
 C        -6.5623500325        6.5514502179       -7.7838274250
 C        -6.7810163955        7.2282086433       -6.3919517852
 O        -6.3171888399        6.8089942055       -5.3521041330
 C        -7.6485671862        8.5632005568       -6.4069035671
 C        -5.4744279163        5.4563746560       -7.5085054183
 C        -5.8657045157        7.6028681939       -8.6761924934
 C       -12.2929057394        4.0271164979       -6.3112165830
 C       -12.1467969888        6.3456515648       -5.6141894020
 C        -5.5942353209        2.9237710846       -3.1887554844
 C        -6.5209570978        0.7692030532       -2.1001322161
 C       -10.7003135606        0.3743065709        0.7066160255
 C       -11.7694112521        2.6598351022        0.0786731679
 C       -11.9218588022       -1.8860605562        6.7487674732
 C       -14.3269784198       -1.1050812403        6.3732888875
 C        -9.8153548824        3.7421567574        9.8301189645
 C        -9.8446429017        5.8237272391        8.3332586692
 H        -6.6884800494        3.1951686651        7.4141203766
 H        -7.5240425242        2.8336930785        8.8848814943
 H        -7.0027723034        4.5431041810        8.6834209619
 H       -11.4456789350        2.1576620346        9.2162108933
 H       -10.8015926742        1.7160694961        7.8102917832
 H       -13.5089051948        2.5502477376        7.2807612755
 H       -13.3866834218        1.1438674284        8.3205193577
 H       -14.2378653653        0.9437702370        4.1883985483
 H       -14.6202219943       -0.5520021036        3.5185331037
 H       -14.0700504148        0.9941200066        1.5901818204
 H       -13.0503789147       -0.3729805329        1.5522541500
 H        -8.8006096634        4.4690173725        0.6359034968
 H        -9.3997819257        3.2683158239       -0.6200737793
 H        -8.0482610522        1.4345955824       -0.0095221883
 H        -6.9707201298        2.6593660521        1.0519113484
 H        -7.9259024982        3.3745453753       -4.7375372473
 H        -8.1905419916        4.3859383213       -3.3581875551
 H       -10.5647415614        2.5549467952       -3.4596841415
 H       -10.1995090810        2.8562238018       -5.1929651584
 H       -10.3931112115        5.1100414746       -8.8089076784
 H       -10.1946453309        3.4493930224       -8.2462171786
 H        -8.6317441997        4.1385405125       -9.5499484842
 H        -7.7088430325        3.9183600997       -7.9277775507
 H        -8.3415951725        8.7420950176       -5.5000611243
 H        -8.3676350021        8.4671113469       -7.2141699912
 H        -6.8878677521        9.2590152745       -6.8347465015
 H        -4.9841531974        5.1234276359       -8.3927677452
 H        -5.9866592128        4.7537961509       -6.9803698731
 H        -4.6870922989        5.8735492164       -6.8641227941
 H        -5.5352932613        7.1391505158       -9.5870153388
 H        -5.1643355979        8.2521789450       -8.2513835320
 H        -6.5948028398        8.3424946623       -9.0528011169
 H       -13.3148174720        4.3935264376       -6.1476539713
 H       -12.1366557389        3.0678582743       -5.8326125500
 H       -12.1871071128        3.7140694050       -7.4636151463
 H       -13.0723360170        5.9988310567       -5.0716110580
 H       -12.2525391426        6.8042474413       -6.5973954058
 H       -11.6464451824        7.0848663584       -5.0218613387
 H        -4.7359361296        3.4093934289       -2.7158404360
 H        -5.9566305231        3.7023231448       -3.8499467941
 H        -5.0441412429        2.2738673049       -3.8194426152
 H        -6.4853005817        0.0876195803       -2.8655356784
 H        -7.1880187106        0.3798832674       -1.4027028000
 H        -5.4713073947        0.7104599822       -1.6901433912
 H       -10.0018755465        0.4526442911       -0.0828814738
 H       -11.5667044750       -0.2631898829        0.6190931578
 H       -10.1888190273       -0.0558448902        1.5218210035
 H       -12.7426049951        2.3619952924       -0.2656219042
 H       -11.1312515565        2.6709094825       -0.8330025780
 H       -11.6783671412        3.6643637525        0.4696574261
 H       -11.9982325581       -1.6503623130        7.8531532086
 H       -10.7939662146       -1.6560397486        6.6368398596
 H       -12.2486004578       -2.8939499398        6.4164862683
 H       -14.4322230333       -1.8275312337        7.2401149641
 H       -15.0307960314       -1.3555643214        5.6064676172
 H       -14.5680886513       -0.1933783295        6.8806528936
 H        -9.5888234352        2.6342481296        9.8393887276
 H       -10.7677934250        3.9135015822       10.3305305404
 H        -8.9581174795        4.1592210911       10.3263960530
 H       -10.6349780246        6.4290168811        8.4799641032
 H        -9.2010031585        6.2990685625        7.5221698977
 H        -9.2121315858        6.1884796181        9.1343063775
 Na      -10.8066647417        3.0154771280        4.6937605934
