117

 C        -7.3231614024        3.7871664795        8.2276703965
 C        -8.7312336940        3.9414967432        7.5306844692
 O        -8.9329056222        3.5329980211        6.3741958760
 C        -9.9433597295        4.3249542082        8.4329514471
 C       -11.2976467038        3.7619210035        7.8156540640
 O       -11.9068407827        4.5148967755        7.0717358023
 C       -11.7479069654        2.3663506284        8.1600850389
 C       -12.8517539950        1.7500444405        7.1931134830
 C       -12.2520664608        0.7690505449        6.1310768675
 O       -11.3049758545        0.9721694033        5.4552931683
 C       -13.0907131782       -0.7725845063        5.9278652700
 C       -12.7870012437       -0.9112692557        4.4137038016
 O       -12.1471664634       -1.7913971027        3.9490537950
 C       -13.6693741615        0.0210786633        3.6297141479
 C       -12.9786079089        0.4428784053        2.3802379399
 C       -12.1562863678        1.7411311870        2.4232032560
 O       -12.3452355349        2.5622039090        3.3166187289
 C       -11.2482873974        2.0197964809        1.2096396123
 C        -9.9678826514        3.0902781957        1.5493688124
 O        -9.8183510598        3.6542370781        2.6123040969
 C        -8.9332983765        3.3429250879        0.3933402210
 C        -7.6204045987        2.4019870401        0.3342372660
 C        -6.7439768904        2.8937519554       -0.9508033908
 O        -6.1220946328        3.9137078402       -0.8994404040
 C        -6.7093211342        2.0582133547       -2.3357974161
 C        -8.1428253015        2.2922082703       -2.7850083817
 O        -9.0334996698        1.5737230750       -2.2811670712
 C        -8.6246807927        3.4017098760       -3.7320052874
 C       -10.1019810987        3.1978300939       -4.1470228090
 C       -10.9580562883        4.6919481233       -4.3557186454
 O       -11.1614585126        5.3987354234       -3.3430763125
 C       -11.3271361575        5.1067651310       -5.8300037707
 C       -10.0348496379        5.0182543880       -6.5557949612
 O        -9.0647612237        5.1307917821       -5.8352849306
 C       -10.0146515750        4.7168269334       -8.0229929677
 C        -8.4216695703        4.7136076032       -8.4302258856
 C        -7.8139542742        6.1442779874       -8.6421572956
 O        -8.5844574097        6.9635299413       -9.1792518929
 C        -6.4984137252        6.3940223867       -8.0433433438
 C        -6.7081056453        6.9682652028       -6.2985806888
 O        -5.9580307005        6.6170539838       -5.4606579209
 C        -7.5349093060        8.1766091447       -6.2087055526
 C        -5.6724845589        5.0706073703       -7.8573796284
 C        -5.6896462468        7.4180346426       -8.8252701106
 C       -12.4045414129        4.0139000347       -6.0217840624
 C       -11.9618854988        6.4686902936       -6.0556683883
 C        -5.6619980346        2.5440993269       -3.2547920500
 C        -6.3044073137        0.6593450370       -2.0053566293
 C       -10.4284782214        0.8708779902        0.6080943700
 C       -12.1961575933        2.5439922372        0.1052886069
 C       -12.3612023251       -1.8659891434        6.7166994767
 C       -14.5351449699       -0.5515851661        6.4633925857
 C        -9.8201242444        3.8404863617        9.9524506776
 C        -9.9165690410        5.8650642716        8.3228663807
 H        -6.4314889459        3.8995759764        7.6824808977
 H        -7.2634400402        2.7853233807        8.6774120040
 H        -7.3306944402        4.3772643820        9.1067662579
 H       -12.1837372336        2.3042768755        9.2193371926
 H       -10.8551547707        1.5868495859        8.2442590717
 H       -13.5620220244        2.4878991775        6.8576730835
 H       -13.3968491591        1.0916458502        7.8741669924
 H       -14.0302811807        0.7597274363        4.3273691208
 H       -14.6959086193       -0.4538296206        3.3858523953
 H       -13.7593622977        0.6741523671        1.5553625593
 H       -12.4425415571       -0.4011551531        1.9428424439
 H        -8.5277062387        4.3344407715        0.3789139787
 H        -9.5207334412        3.2088302498       -0.4886448951
 H        -7.7426829000        1.5032051529       -0.0461020721
 H        -7.1228749562        2.5003745646        1.3249826709
 H        -8.0670820186        3.2784584151       -4.6645506755
 H        -8.4165009787        4.3613289346       -3.1743013892
 H       -10.6784584188        2.8398342061       -3.2946058242
 H       -10.2662554488        2.5559056345       -5.0246242898
 H       -10.4587803245        5.6000881593       -8.4948872056
 H       -10.5408843630        3.8705637146       -8.3725076792
 H        -8.3854555699        4.1000720985       -9.3094316066
 H        -7.9289044196        4.2333000025       -7.5975686300
 H        -8.0649712050        8.0347418508       -5.3411705310
 H        -8.3733601959        8.1637535581       -6.9380253726
 H        -6.8856768929        9.0091707103       -6.4050244649
 H        -5.9998322509        4.4046201083       -8.6940826314
 H        -5.9120631367        4.6128439495       -6.8574038529
 H        -4.6792847653        5.1252952335       -8.1465883964
 H        -5.8491163500        7.2532441140       -9.9002630299
 H        -4.5976409982        7.4996379553       -8.6458697389
 H        -5.9491985817        8.4622114143       -8.5728161919
 H       -12.9771771920        3.8888370181       -5.1017100354
 H       -11.9015637870        3.1156701852       -6.3503323835
 H       -13.1265000079        4.2641766745       -6.6758098222
 H       -12.1036151821        6.9132909169       -5.0384685794
 H       -12.7850694470        6.2684379069       -6.7676561452
 H       -11.3910831805        7.2064018475       -6.6565029898
 H        -4.7300684391        2.5391372821       -2.7747209904
 H        -5.6537843467        3.5422678913       -3.6466515554
 H        -5.4480591627        1.9452403774       -4.1852984176
 H        -6.1504673586        0.1149695486       -3.0490489265
 H        -7.1374648968        0.0466713029       -1.4356401295
 H        -5.3205802332        0.4638711987       -1.6185046600
 H        -9.8251394212        1.2091232091       -0.2561840377
 H       -10.8741544127       -0.1049960208        0.3967173093
 H        -9.6998602882        0.5807602561        1.4101532227
 H       -13.2082093219        2.3711192789        0.4748924478
 H       -12.1595213847        2.0742654116       -0.8428542428
 H       -11.8790068322        3.5606498544       -0.1473145086
 H       -12.5717846083       -1.6741062188        7.6473936535
 H       -11.3495233217       -1.7683354937        6.6627438237
 H       -12.7237111142       -2.8516515221        6.3684637522
 H       -14.5105214953       -0.9289968332        7.4340165323
 H       -15.1767475914       -1.3993722837        6.0227774682
 H       -14.8878627104        0.4811448677        6.5645909602
 H        -9.5006301223        2.8292359429       10.0928684183
 H       -10.8297166065        3.9801938604       10.3758445812
 H        -9.0398921563        4.4496956608       10.4587084978
 H       -11.0106982513        6.2006031032        8.4401655263
 H        -9.5985139746        6.3209223441        7.4946786552
 H        -9.4480285581        6.5141794299        9.0976917822
 Na      -10.7433437905        3.4603639327        4.7934145770
