117

 C        -7.3164599699        3.8191590896        8.0979888697
 C        -8.7454107591        3.7993328206        7.6823301425
 O        -8.8464073870        3.4997329355        6.4711964507
 C       -10.0128654113        4.3921702634        8.4324717741
 C       -11.2680726208        3.7885163854        7.8114864320
 O       -11.9061908790        4.4306823657        7.0003874355
 C       -11.7714576975        2.3689326228        8.1909266138
 C       -12.7262884463        1.7801044814        7.1975540100
 C       -12.2158175783        0.7587480205        6.1592836805
 O       -11.2891620189        0.8573957938        5.3899529145
 C       -13.1054155103       -0.5731569742        6.0050697979
 C       -13.0011905069       -0.9390741352        4.5444897928
 O       -12.2525609480       -1.8142934914        4.1778604243
 C       -13.7152734323        0.0110112389        3.3911101348
 C       -12.7051417419        0.4453102851        2.2338341693
 C       -11.9956624458        1.7975056366        2.4308820219
 O       -12.1993828277        2.5692776054        3.3650832023
 C       -11.1332846132        2.2437814720        1.1633189191
 C        -9.9584721910        3.2138311951        1.4554694082
 O        -9.7191764475        3.6673587914        2.5750394886
 C        -8.9292095666        3.4186134255        0.3768918489
 C        -7.7038569839        2.4799110399        0.3278987598
 C        -6.7781202380        2.8606705682       -0.9561823018
 O        -6.2817032788        3.9796378887       -0.8750518747
 C        -6.7641518287        1.9424417300       -2.2647492755
 C        -8.2706080873        2.0946801628       -2.7553244256
 O        -9.1531378301        1.3649273183       -2.2856528147
 C        -8.6665133614        3.3388758078       -3.5931792729
 C       -10.1322131381        3.3617640543       -3.9908476820
 C       -10.7779458512        4.7237990187       -4.2139927340
 O       -11.0482703602        5.4506952316       -3.3630305027
 C       -11.3812322497        5.0718674232       -5.7243354874
 C       -10.0780862504        4.9006714640       -6.5132646076
 O        -9.0219746098        4.9074499640       -5.9300015194
 C       -10.0910201579        4.7929326696       -8.0886598323
 C        -8.5734319097        4.7057605024       -8.4430978345
 C        -8.0143682268        6.1602534387       -8.6356475693
 O        -8.4986265330        7.0598834818       -9.1795437901
 C        -6.4440635741        6.3312057726       -7.9616830652
 C        -6.4365004171        6.8812778120       -6.5246956508
 O        -5.8155623484        6.3204885725       -5.6586149706
 C        -7.5621370857        7.9515627830       -6.2797488588
 C        -5.6007611393        4.9971902701       -7.9487288240
 C        -5.6582611360        7.3788793166       -8.8048020192
 C       -12.4330618655        3.9389668125       -6.1303783010
 C       -11.8739719692        6.5660286481       -6.0420146854
 C        -5.7328679128        2.6050934704       -3.3247699292
 C        -6.3872076255        0.4998980430       -1.9537392615
 C       -10.4645542744        0.9511037810        0.6541915387
 C       -12.2762283851        2.6109882055        0.1286116530
 C       -12.4295299775       -1.7278960638        6.7425193279
 C       -14.6061554381       -0.4294515959        6.3554030420
 C        -9.8419399573        3.9265931043        9.9827450882
 C       -10.0995208786        5.8946614831        8.3555280497
 H        -6.7437683651        4.2104722232        7.2878895028
 H        -6.8619703293        2.9184159854        8.4206412246
 H        -7.2318789101        4.4413339427        8.9846360983
 H       -12.3953619401        2.4726529866        9.1234865373
 H       -10.9726365620        1.7067884985        8.5011793405
 H       -13.1543236081        2.5854433151        6.6317761303
 H       -13.5930808601        1.3392593847        7.7992653633
 H       -14.0347003767        0.9115298769        3.9383105480
 H       -14.6887381509       -0.3076957771        3.0545144434
 H       -13.2511131947        0.5566796255        1.2613490002
 H       -11.9478164956       -0.2979810079        1.9809147335
 H        -8.4537959550        4.3453387138        0.4258505125
 H        -9.5706762555        3.3369614741       -0.4788059897
 H        -7.7931522689        1.3767986512        0.1831392804
 H        -7.2547941637        2.7910944659        1.2346773902
 H        -8.0434570804        3.2547694954       -4.5407912318
 H        -8.3705559171        4.2050052833       -2.8776548985
 H       -10.7206414302        3.0400385048       -3.1496752511
 H       -10.3627673988        2.8148787697       -4.8552083635
 H       -10.5456650541        5.7663144909       -8.5078882184
 H       -10.5940422620        3.9772116018       -8.5094091818
 H        -8.4560038668        4.2033503850       -9.3730523181
 H        -8.1311870947        4.1348385221       -7.6448194667
 H        -8.0391366103        7.6616987982       -5.3450257565
 H        -8.3829854534        8.0442624703       -6.9379102602
 H        -6.9412933736        8.8453293087       -6.3151939499
 H        -5.9274447320        4.2945063576       -8.8037800707
 H        -5.6247494556        4.5228489693       -6.9348842274
 H        -4.5732886707        5.1374398161       -8.3731519191
 H        -5.8073256784        7.1786072206       -9.8802557446
 H        -4.5817016733        7.3048286435       -8.6798498842
 H        -5.7556766869        8.4827639917       -8.5402871873
 H       -12.9704976592        3.5341138423       -5.3037706770
 H       -11.9563093714        3.2141291837       -6.6706211806
 H       -13.2911814985        4.4283235103       -6.6979465987
 H       -11.6174835629        7.2562337951       -5.1882979707
 H       -12.8047050812        6.5361063469       -6.5634225096
 H       -11.2827006891        6.9227366948       -6.8030195873
 H        -4.7204667843        2.2773133876       -3.1706106867
 H        -5.4777637031        3.6859495128       -3.4585363052
 H        -5.9262530403        2.2808533943       -4.3847609544
 H        -6.1426997261        0.0862311551       -2.8920874788
 H        -7.1919793975       -0.0693782275       -1.5370205174
 H        -5.4429085633        0.2715133758       -1.4321800591
 H        -9.9695753554        1.0969894018       -0.3909884673
 H       -11.1907785875        0.0604552727        0.4783847991
 H        -9.7106544118        0.4794887688        1.3683026924
 H       -13.1722903607        2.5643172880        0.7009049617
 H       -12.3850278422        1.9145708953       -0.6936072415
 H       -12.0640173540        3.5200059181       -0.4265112118
 H       -12.4255643504       -1.5696702281        7.8398049539
 H       -11.4002863452       -1.9254829451        6.3608134320
 H       -13.1162369027       -2.5448056822        6.4802580484
 H       -14.9764493876       -0.1133667903        7.3485963172
 H       -14.8394755034       -1.5365768628        6.3245245266
 H       -15.0564370098        0.2085247301        5.6534131105
 H        -9.7856534696        2.8523420740       10.1057517742
 H       -10.7023095837        4.2783489883       10.5197980615
 H        -8.9414410499        4.3210035243       10.3830892124
 H       -11.0184209374        6.2911457256        8.7310207201
 H       -10.0565966523        6.3956215129        7.3255442410
 H        -9.3289240506        6.5115738736        8.9160235972
 Na      -10.6917910932        3.6710043375        4.9857732247
