117

 C        -7.3228077620        3.9560790930        8.1883806598
 C        -8.7128169331        3.8835433046        7.5693789415
 O        -8.9653332508        3.4323658952        6.4950514338
 C        -9.9920715490        4.3956565209        8.4413250254
 C       -11.2532851659        3.7797476106        7.7932681008
 O       -11.8228965596        4.3287385319        6.8818712026
 C       -11.7345951693        2.3734642405        8.2376511972
 C       -12.7158559802        1.8110262512        7.1813519403
 C       -12.3162477051        0.7373469546        6.1979765212
 O       -11.2579758785        1.0333372835        5.5329783928
 C       -13.1904764577       -0.5254316146        5.9278136782
 C       -13.0079775077       -0.8270786431        4.4337910721
 O       -12.4242167697       -1.8694220181        4.1290399293
 C       -13.6252999129        0.0876226036        3.3527122792
 C       -12.5407270812        0.4170253583        2.3347182053
 C       -11.9482934506        1.7653292758        2.4763153371
 O       -12.0579810095        2.4933225637        3.4356921037
 C       -11.0777096498        2.2014436735        1.1896021672
 C        -9.9315841259        3.2052095140        1.4846821399
 O        -9.7316050358        3.6771644098        2.5737941768
 C        -8.8900674211        3.5849269107        0.2315439281
 C        -7.7538646620        2.5545420652        0.2795491131
 C        -6.8617734164        2.9265715612       -0.9406786165
 O        -6.3530411454        3.9940094750       -0.9573884688
 C        -6.9098645925        1.8999140194       -2.1961920164
 C        -8.3814661895        2.0286353563       -2.6672535581
 O        -9.1128769545        1.1631332812       -2.3242312362
 C        -8.7367959358        3.3408014986       -3.4990134752
 C       -10.2457089866        3.3514248536       -3.8519459870
 C       -10.8976512322        4.7781242892       -4.0739657375
 O       -10.9481302885        5.6623157971       -3.2438267949
 C       -11.3695542183        4.9639609081       -5.6988672363
 C       -10.0421793633        4.8013817894       -6.5852009629
 O        -8.9240306195        4.7578837852       -6.0504688092
 C        -9.9981612137        4.9019816757       -8.1193497346
 C        -8.6172997023        4.7921755542       -8.6995923529
 C        -7.7971238216        6.0462195667       -8.6298052575
 O        -8.3704384630        7.0523963788       -9.0617329847
 C        -6.3825248605        6.1686533555       -8.1682287326
 C        -6.4855911092        6.6836335285       -6.6171043757
 O        -5.7112627380        6.1731913670       -5.7955054842
 C        -7.4865470901        7.8204103184       -6.1753671906
 C        -5.6205308158        4.8557544586       -8.1718990632
 C        -5.7280766271        7.3970674449       -8.8960168056
 C       -12.4559983082        3.9654104691       -6.2052618316
 C       -11.7676861397        6.4520276154       -5.7876920844
 C        -5.9524180545        2.6077364318       -3.1895307098
 C        -6.5514597811        0.4706091114       -1.9082880057
 C       -10.4624114960        0.8920149793        0.5494110119
 C       -12.1631202392        2.8849398192        0.1473788448
 C       -12.4717605902       -1.5984264583        6.9339547460
 C       -14.7349555496       -0.3218267279        6.2947575684
 C        -9.8620003393        4.0058503345        9.9763748379
 C       -10.1110564978        5.8767807040        8.4193039252
 H        -6.5986647706        4.2914076300        7.4174496339
 H        -7.0242888147        2.9496486304        8.4878241333
 H        -7.1834620036        4.4592633306        9.1627656606
 H       -12.2607007021        2.3750369348        9.1924716199
 H       -10.8311431912        1.7810458007        8.3033379679
 H       -12.8309625245        2.6789187879        6.4526896154
 H       -13.7130167489        1.7008088817        7.6106548419
 H       -14.3292622835        0.8729552221        3.6421198474
 H       -14.2836011422       -0.5679048809        2.9023639507
 H       -12.8433439853        0.1471627269        1.3646106761
 H       -11.6112443290       -0.1786628278        2.4606352556
 H        -8.4864502470        4.6281629914        0.2600353308
 H        -9.5059180308        3.3742859796       -0.6450859967
 H        -8.1234824969        1.4357954037        0.1962230307
 H        -7.2555371936        2.7469418608        1.2227531096
 H        -8.0716960232        3.3304474103       -4.3984947835
 H        -8.5021881949        4.1111442062       -2.7616742315
 H       -10.8016844148        2.8860023375       -3.0490324705
 H       -10.4386623494        2.9614244863       -4.8325061969
 H       -10.6684459523        5.6803391692       -8.4937208066
 H       -10.4505889697        3.8526246147       -8.4144534019
 H        -8.7279611634        4.7285494313       -9.7931883464
 H        -8.2949149979        3.8083320810       -8.3270346909
 H        -8.0335311593        7.4785261452       -5.2391918833
 H        -8.2966623820        8.0626784663       -6.8341366244
 H        -6.7334573162        8.6363119082       -6.1259744815
 H        -5.6657618341        4.1859280015       -9.0179555636
 H        -5.8316600292        4.4174866962       -7.1944838499
 H        -4.4982528702        5.1461790158       -8.2101715748
 H        -5.6363342354        7.2447524248       -9.9734302313
 H        -4.7000996023        7.5919952112       -8.5861139337
 H        -6.1977542128        8.3498555312       -8.6277324149
 H       -13.0435593403        3.5662394365       -5.3915814346
 H       -12.0652576718        3.1059272299       -6.7912291040
 H       -13.2440383106        4.5827044030       -6.7170557561
 H       -11.2084486965        6.9665375457       -5.0825038037
 H       -12.7931106947        6.5800886465       -5.8773905172
 H       -11.4115657369        6.9352548651       -6.7108783424
 H        -4.8653639136        2.2243213448       -3.3233434836
 H        -5.6578541953        3.6594269573       -3.1643087140
 H        -6.3747049538        2.4989131304       -4.1606047903
 H        -6.2541242045       -0.0531149380       -2.7371948095
 H        -7.3068702432        0.0155233338       -1.4265279853
 H        -5.6909895371        0.4231196694       -1.2798320779
 H       -10.0040339757        1.1921103856       -0.4477813453
 H       -11.2291058184        0.1755975789        0.1460585620
 H        -9.7758360859        0.2373678954        1.1627671443
 H       -12.9821255197        3.3180310964        0.7137898306
 H       -12.5234370975        2.1590441683       -0.5993619050
 H       -11.6287833873        3.5423439428       -0.4981103422
 H       -12.3072886565       -1.2318722232        8.1049263134
 H       -11.4930405680       -1.9718200472        6.4580151999
 H       -13.1868592941       -2.4200653885        6.9260815104
 H       -15.1021471634        0.4477695436        7.0382075347
 H       -15.0109321225       -1.2202797305        6.6656076094
 H       -15.2085738817        0.0017370331        5.3743253240
 H       -10.0251836718        2.9475206494       10.1792081000
 H       -10.6136809319        4.5536902825       10.4825578195
 H        -8.9198258958        4.3023054122       10.3680596118
 H       -10.7771958474        6.4449124961        9.0167520277
 H       -10.4111319815        6.1544334877        7.3239128797
 H        -9.2021547933        6.4243280662        8.4774491769
 Na      -10.6701891885        3.7128439526        5.0248680618
