117

 C        -7.3141379471        4.1858016265        8.2919599757
 C        -8.6997988227        4.0726078565        7.6139222813
 O        -8.7459531328        3.5390050627        6.5109946045
 C        -9.9740122610        4.4441014147        8.4297857076
 C       -11.1369925741        3.8500816522        7.5979175649
 O       -11.6666079195        4.3620357659        6.6618839747
 C       -11.8137047615        2.6240079393        8.2859826778
 C       -13.0530718792        1.9514011639        7.6664031216
 C       -12.5500452753        1.0904336711        6.3833253798
 O       -11.5837267820        1.2643658495        5.6239733368
 C       -13.3039079287       -0.1705748620        6.1613182511
 C       -13.0628624328       -0.7775809457        4.7460768381
 O       -12.7969759803       -1.9647360805        4.5106285985
 C       -13.3706471262        0.0499222647        3.3699906666
 C       -12.4400463074        0.2671856909        2.2182402669
 C       -11.7913977603        1.6068535580        2.2765113757
 O       -12.0722480690        2.3446767681        3.2160601266
 C       -11.0092587472        2.2888345625        1.1399401346
 C        -9.7685596884        3.2786054931        1.5880648489
 O        -9.6444223457        3.6715991670        2.7216292397
 C        -8.7170521110        3.7135747105        0.5672764026
 C        -7.5375510448        2.8519075741        0.4899040697
 C        -6.9057561784        3.1417439030       -0.9291511348
 O        -6.3175564291        4.1335508852       -1.1954114570
 C        -7.0984899348        2.0658939024       -2.0472402846
 C        -8.5583540875        1.8861853358       -2.5758997054
 O        -9.2364846935        0.9086870490       -2.7036787383
 C        -9.1948951009        3.2392947629       -3.1324513731
 C       -10.6385204525        3.2451032425       -3.6724497674
 C       -10.9425763526        4.7673330523       -3.9468343358
 O       -10.6525073647        5.6596689556       -3.2676726544
 C       -11.0964443558        4.9530741318       -5.4916765287
 C        -9.8640287255        4.6460922455       -6.5398438812
 O        -8.7152077014        4.4344036325       -6.1836848320
 C       -10.0844151103        4.9202346269       -8.0795430794
 C        -8.7948572967        4.7075466591       -8.8410455557
 C        -7.9748992897        6.1409077397       -8.8842270061
 O        -8.4109372431        7.2185487476       -8.8161297667
 C        -6.3318503177        6.0278464336       -8.3794358424
 C        -6.2475456299        6.1675005929       -6.9162871021
 O        -5.4705271335        5.4047833600       -6.2422083706
 C        -7.0786659598        7.2847422101       -6.1642715113
 C        -5.7868276023        4.6436483787       -8.8033025596
 C        -5.5471920730        7.2679002605       -8.9461541984
 C       -12.1301707083        4.0943326670       -6.1737140777
 C       -11.3712630333        6.4953552287       -5.8467193881
 C        -6.2519694005        2.2067806772       -3.3511963307
 C        -6.7709040113        0.6901019599       -1.4852691476
 C       -10.6321716240        1.3092899672        0.0809959015
 C       -12.1237536567        3.4661478316        0.5942082097
 C       -12.7886217273       -1.3246579974        7.1295254494
 C       -14.9713126594       -0.0976047340        6.0784670436
 C        -9.8947215148        4.0365603479        9.9223431772
 C        -9.9782818490        6.0057064739        8.3421635768
 H        -6.5496827565        4.0554296648        7.5530551829
 H        -7.1713549037        3.6820517162        9.1833784604
 H        -7.2875228828        5.1885062467        8.7372167509
 H       -12.1335930289        3.1287971328        9.2636866388
 H       -11.0419244688        1.8377780524        8.3496357265
 H       -13.9000843689        2.5375421997        7.3838567117
 H       -13.4856730202        1.2977905800        8.5018773045
 H       -13.8497080507        1.0681482243        3.5660009808
 H       -14.2562302815       -0.4505035283        2.9926720770
 H       -13.1173727582        0.3106495131        1.3065835743
 H       -11.6962517055       -0.5183539604        1.9419216014
 H        -8.5895383205        4.6167126278        1.0713809744
 H        -9.1658325337        3.8205935634       -0.3856236818
 H        -7.9829982418        1.8046651006        0.6585949724
 H        -6.8358685286        3.0237714180        1.2008952423
 H        -8.5046381834        3.3741496396       -3.9721829044
 H        -9.1332608006        4.0022391928       -2.3100756746
 H       -11.3649828436        2.9538976237       -2.9206362781
 H       -10.7118245614        2.6994235902       -4.5854608141
 H       -10.5239755129        5.8896800142       -8.4114951926
 H       -10.8115975132        4.2180273378       -8.3439186539
 H        -9.1291885978        4.3440845840       -9.8081545047
 H        -8.3592798806        3.8697435166       -8.3516468800
 H        -7.9048098342        6.7453828557       -5.6654644159
 H        -7.4725584989        7.9809763627       -6.8090506420
 H        -6.2776110419        7.5548860030       -5.5024298724
 H        -5.2059544148        4.7015631610       -9.7542219216
 H        -6.5256831341        3.9186459149       -9.0948993265
 H        -5.2104634880        4.1065620370       -7.9989678103
 H        -5.2253206754        7.1969249973       -9.9993643871
 H        -4.5672811265        7.3967796105       -8.4556060825
 H        -6.1337470500        8.2306836148       -8.8261026998
 H       -13.1165831884        4.3577284267       -5.9606370529
 H       -12.0379991089        3.1910235257       -5.6908992228
 H       -12.0439387861        3.9245030881       -7.2951128267
 H       -10.5482317048        6.9480518462       -6.4754411606
 H       -11.4958211731        6.9844670973       -4.8437979610
 H       -12.3130577039        6.7511614938       -6.3652279187
 H        -5.2794630174        2.6578467951       -2.9928854191
 H        -6.5701290051        3.0557949250       -3.9530543113
 H        -6.1541161417        1.4813980858       -4.0790046100
 H        -6.7964669712       -0.0746650182       -2.3062853759
 H        -7.4324366620        0.3972907341       -0.6252669081
 H        -5.6929155817        0.5471617781       -0.9944381359
 H       -10.1380755927        1.6779215118       -0.8279118423
 H       -11.4561496136        0.9175816112       -0.5039847351
 H       -10.0386879509        0.4321194371        0.3569595053
 H       -11.6013511560        4.3932876127        0.2679796144
 H       -12.9279121133        3.5686878769        1.3665823101
 H       -12.6748071994        2.9594118707       -0.2110959702
 H       -13.1638096148       -1.1334316772        8.1669794024
 H       -11.7620853654       -1.2927738529        7.0258842121
 H       -13.0714555387       -2.2375671346        6.8685531892
 H       -15.4687807845        0.4671922444        6.9790956628
 H       -15.2328031133       -1.1292882049        6.1076761776
 H       -15.1957164919        0.4196203281        5.1443782381
 H        -9.4400008705        2.9945342670        9.9566558744
 H       -10.8858660440        3.9828544567       10.4149177372
 H        -9.3703896126        4.7951362286       10.4952705562
 H       -10.5417503520        6.4827234147        9.0807834185
 H       -10.5142274781        6.5223478962        7.4294241571
 H        -9.0079032125        6.4855764861        8.4480843921
 Na      -10.5204550509        3.1585058554        4.7997031739
