117

 C        -7.2609790693        4.2928074110        8.2099405178
 C        -8.5903622625        4.1435481667        7.5495503534
 O        -8.5491789940        3.6592067551        6.4116636905
 C        -9.9413066712        4.5575964925        8.3930299989
 C       -11.2151936155        3.8783145886        7.6961546939
 O       -11.6108819013        4.2292768747        6.5769419710
 C       -12.0673218001        2.8145686145        8.4773898471
 C       -13.1650670002        2.0737964471        7.6190013978
 C       -12.5907376791        1.0963162395        6.4475063194
 O       -11.7441840760        1.4511629292        5.6798730877
 C       -13.5905592437       -0.1831251707        6.2362571170
 C       -13.2201653880       -0.9399041687        4.6295078533
 O       -12.6213479683       -1.9489993476        4.5930797384
 C       -13.5533350663       -0.0894523771        3.3565112353
 C       -12.2916620860        0.3357535687        2.3441492640
 C       -11.9275016195        1.8367254727        2.3464572020
 O       -12.2143562358        2.4584763596        3.3619831690
 C       -11.1110782892        2.5491158515        1.1874147877
 C        -9.7339358827        3.1995175141        1.7399615782
 O        -9.5372337636        3.3436832969        2.9438591702
 C        -8.8208592442        3.9428593655        0.6747648844
 C        -7.4774501419        3.0771369397        0.4330306961
 C        -6.9932639012        3.1111196785       -1.0466674098
 O        -6.3368888876        4.0561272119       -1.4912818179
 C        -7.0387567655        1.9051581138       -2.0223801305
 C        -8.5274243170        1.8237567386       -2.5997891502
 O        -9.2224245619        0.7942273671       -2.8186208819
 C        -9.0137951432        3.2403114475       -3.0346737369
 C       -10.4542307724        3.2803309831       -3.6211185657
 C       -10.8146208631        4.7298398030       -4.2656416272
 O       -10.7770311507        5.7017734301       -3.4870785096
 C       -11.1296421183        5.1280401535       -5.7146902857
 C        -9.8907692321        4.6945103875       -6.5383552204
 O        -8.9381598812        4.2374235762       -6.0148791259
 C        -9.9664783141        4.7011095962       -8.0288402861
 C        -8.6072789536        4.8245086397       -8.8688594886
 C        -7.8551799885        6.1225960326       -8.6788472873
 O        -8.4282386616        7.2043502258       -8.7406619922
 C        -6.2940884053        5.9241350910       -8.4990255660
 C        -6.0728289419        5.7409575224       -6.9688640314
 O        -5.4592070724        4.8567016608       -6.5261707295
 C        -6.6993620515        6.8315092495       -6.1190378843
 C        -5.7272672613        4.7018274306       -9.3715211664
 C        -5.5738595242        7.1177787774       -9.1676414615
 C       -12.4681573349        4.3841629964       -5.8794419455
 C       -11.3514107566        6.6122617110       -5.8563658545
 C        -6.0590856325        2.0912528009       -3.2453424255
 C        -6.7685982248        0.4527275381       -1.3242880389
 C       -10.7254076791        1.7326562971       -0.0992426253
 C       -12.0818812623        3.6923474262        0.6518825609
 C       -13.1741512946       -1.1814848933        7.3237262831
 C       -15.1630324963        0.1443404385        6.2942121448
 C        -9.7194810379        4.1745853121        9.8432543334
 C       -10.1146778874        6.0794058290        8.1710941241
 H        -6.5218836488        3.6366002436        7.7421683857
 H        -7.3576295178        3.9721117567        9.2938188014
 H        -6.8509632052        5.2628128922        8.4025150630
 H       -12.4843132676        3.4601566855        9.2209030189
 H       -11.2813362113        2.0292279183        8.6727651971
 H       -13.8941985292        2.7073143357        7.0370388490
 H       -13.8654303020        1.5431928334        8.2321766331
 H       -14.1881011173        0.6826676412        3.6684134058
 H       -14.2235364855       -0.7929593980        2.8105324335
 H       -12.3914700862       -0.0170730616        1.3377404551
 H       -11.4887244672       -0.2416364684        2.7792703844
 H        -8.4980744285        4.9663598428        1.0653817877
 H        -9.5224197724        4.0442141872       -0.1899478207
 H        -7.5573024857        2.0847901439        0.7869040410
 H        -6.6769149640        3.5875356438        1.1187066470
 H        -8.1751184850        3.5772077562       -3.6584878368
 H        -9.0188904561        3.6349055941       -2.0309534541
 H       -11.1659795760        3.0764687211       -2.8020056416
 H       -10.5029318031        2.5157784298       -4.4109069507
 H       -10.5613788217        5.5819988149       -8.3242636120
 H       -10.7191493183        3.8879089711       -8.3083575575
 H        -8.9202573467        4.4346911393       -9.8508513155
 H        -7.9667549001        4.0202909570       -8.4619684165
 H        -7.7260531635        6.5186554997       -6.0946865610
 H        -6.5702459955        7.7507092470       -6.7725273775
 H        -6.2093348029        6.7191874260       -5.1497043005
 H        -4.9146584085        5.0732095555      -10.0180283310
 H        -6.4124794136        4.3527093138      -10.2073950024
 H        -5.4533534866        3.7827052258       -8.8610655357
 H        -5.9991769638        7.1510303095      -10.1874627366
 H        -4.4797280876        7.0652159206       -9.3749725634
 H        -5.8349204424        8.1013438538       -8.8193934447
 H       -13.2598763872        4.9353479046       -5.2599595225
 H       -12.5301575149        3.3750432361       -5.4085992202
 H       -12.6641113491        4.2393062595       -6.9168642429
 H       -10.4984671354        7.1026459464       -6.3972895052
 H       -11.3332124107        7.1751226063       -4.9369766472
 H       -12.1807273268        6.8503415512       -6.4536375038
 H        -5.0945753051        2.5014299431       -3.1739376901
 H        -6.5627260682        2.6215092213       -4.1025333816
 H        -6.0034191132        1.0607212214       -3.7784648062
 H        -6.9020950087       -0.2819498158       -2.0442657630
 H        -7.3728852171        0.2157823467       -0.5229783379
 H        -5.7997089458        0.3972527276       -0.9194746403
 H       -10.3750757275        2.2344687457       -1.0060950294
 H       -11.5760904952        1.1335574742       -0.5491982623
 H        -9.9467655994        0.9590464878       -0.0203171441
 H       -11.9836272080        3.6819686073       -0.4528454543
 H       -11.9100616879        4.5865264324        1.1852162167
 H       -13.1316190771        3.5048341129        0.8969260395
 H       -13.9039279020       -1.1036902572        8.1600505872
 H       -12.0354434298       -1.0490004373        7.6144928769
 H       -13.2078644186       -2.2689848947        6.9293117860
 H       -15.3670209494        0.0483402744        7.2878633816
 H       -15.7950382034       -0.5864645785        5.6566190169
 H       -15.3409744849        1.1747107226        6.0190784413
 H        -9.7001265400        3.1514043202        9.9728668679
 H       -10.4641274910        4.6066113015       10.4763098048
 H        -8.8705503394        4.7172737859       10.2191251460
 H       -11.1148910782        6.5072562139        8.4161879635
 H        -9.9823364130        6.5169256432        7.2378200135
 H        -9.4516157734        6.6255175773        8.8787804111
 Na      -10.3204346718        2.9513271519        5.0839328878
