117

 C        -7.2782967079        4.4579785820        8.1976762362
 C        -8.5980987239        4.1555243975        7.5036667800
 O        -8.6464657356        3.7699101223        6.3704308442
 C        -9.9041040863        4.4708684649        8.3083730057
 C       -11.2293891227        3.7831772102        7.6144411147
 O       -11.4250076924        4.1696522328        6.5222991077
 C       -12.0898760110        2.6725327350        8.3538092570
 C       -13.1754362125        2.3023259027        7.4567804770
 C       -12.7019580831        1.0819389863        6.5850031177
 O       -11.5654889923        1.1930621218        6.0178658902
 C       -13.7906098046       -0.0520130316        6.1308498692
 C       -13.1612188426       -0.5670860076        4.7780172868
 O       -12.5336575534       -1.5835773476        4.8003179290
 C       -13.3858827516        0.3116567819        3.4783344838
 C       -12.1243977933        0.6227065594        2.7308859639
 C       -11.8508519926        2.0853865928        2.5960131771
 O       -12.2794879778        2.7011415775        3.5513355638
 C       -11.1428796876        2.6888019214        1.3229522155
 C        -9.7126794881        3.1085330217        1.7191388685
 O        -9.3504054404        2.9759588937        2.8520852856
 C        -8.8872015395        3.8144115362        0.6300186537
 C        -7.7168718099        3.0025749672        0.2977172002
 C        -7.0564291005        3.0927015008       -1.0750631933
 O        -6.5371395186        4.1141863574       -1.4342302845
 C        -7.0179708354        1.8202606810       -1.9021694149
 C        -8.5339192983        1.9239280736       -2.8152448368
 O        -9.1785953535        0.9568993836       -2.7954849265
 C        -9.0016539394        3.4035918169       -3.2329525387
 C       -10.3173983406        3.4142644446       -3.9160679351
 C       -10.8056712761        4.8772723543       -4.0623408983
 O       -10.7300089798        5.6378534375       -3.1109221891
 C       -11.2747495730        5.2195392401       -5.6458227434
 C       -10.0880560622        4.6264960417       -6.6109064282
 O        -9.0714906876        4.0356435891       -6.1799678281
 C       -10.1058683205        4.7055008042       -8.1517351040
 C        -8.5383097461        4.5169691459       -8.7265993471
 C        -7.7317479951        5.8822159667       -8.7023337148
 O        -8.4007640073        6.9043216287       -8.5200180007
 C        -6.1983889309        5.8429108269       -8.7386018804
 C        -5.9111690229        5.4686486358       -7.3330173118
 O        -5.3636443211        4.4195865031       -7.0754534120
 C        -6.2155590862        6.4066479771       -6.0511430879
 C        -5.6242058215        4.6513287475       -9.6995410868
 C        -5.7048085151        7.1898946795       -9.0445735250
 C       -12.6048288121        4.5398860291       -5.9833740071
 C       -11.2809324870        6.7128498735       -5.8443531231
 C        -5.8139186379        1.8254782620       -2.9755907693
 C        -6.9485638023        0.5264388751       -1.1880348601
 C       -11.0850270089        1.5724872689        0.2882987587
 C       -11.9739035003        3.9032345976        0.9607308230
 C       -13.4245868274       -1.1039444750        7.1559566275
 C       -15.2522409718        0.2874392582        5.9978796807
 C        -9.9234149742        4.2936928010        9.8667138515
 C       -10.0813381965        5.9719449222        7.9343368425
 H        -6.5510772557        4.2059239793        7.3910527100
 H        -6.9593977847        3.9422769570        9.1061190762
 H        -7.1932152793        5.5417533258        8.5234653434
 H       -12.4790327698        3.2048514715        9.2547376725
 H       -11.2708432381        1.9888118076        8.3094912092
 H       -13.5683539571        3.0690641302        6.8225374742
 H       -14.1173790743        1.9992599467        7.9498523964
 H       -13.8260190027        1.2878838610        3.8993950707
 H       -14.1360872832       -0.2059146475        2.9026783543
 H       -12.1179090632        0.0727324341        1.7742872073
 H       -11.2138767693        0.2624946283        3.2833973288
 H        -8.4444042257        4.8185161038        0.7596056375
 H        -9.5587762548        3.8312220835       -0.2435411425
 H        -7.9862489972        1.9095949749        0.2898750489
 H        -7.0321642989        3.0764423418        1.0691878360
 H        -8.1423730460        3.7689365569       -3.7883141990
 H        -9.0486593970        3.8594778400       -2.2574624818
 H       -11.0172618445        2.9736375189       -3.1638082309
 H       -10.4004655748        2.8143505677       -4.8254099548
 H       -10.6338201508        5.5428727316       -8.5842118641
 H       -10.6937803760        3.8521284141       -8.4117764735
 H        -8.8708291704        4.2461566816       -9.7400770181
 H        -8.3059349731        3.5086211541       -8.4306559164
 H        -7.3289694844        6.4377262288       -5.8655376147
 H        -5.7111803967        7.2863388296       -6.3216993328
 H        -5.7517811743        5.8418652142       -5.2388535087
 H        -4.7037544464        4.2262194097       -9.4851113529
 H        -5.5026173664        5.0470128282      -10.6411044811
 H        -6.4070715843        3.9373969893       -9.8690878672
 H        -5.9722900928        7.5793354637      -10.0219074987
 H        -4.6324847727        7.2403546965       -8.9856844393
 H        -6.1852285408        7.9490078183       -8.4238195709
 H       -13.2647861788        4.4899676137       -5.1554381509
 H       -12.4831741283        3.4854776580       -6.3302954906
 H       -12.9345246523        4.9895789845       -6.9227926431
 H       -10.4825303988        7.3056822666       -5.4915897889
 H       -12.0931547639        7.2574535207       -5.3461045510
 H       -11.3064364717        6.8328244168       -6.9894892565
 H        -4.8879052278        1.4618394821       -2.4499046143
 H        -5.5384985517        2.6361771554       -3.6178494900
 H        -5.9762157555        1.0109279362       -3.5850666155
 H        -7.2899072342       -0.1797966405       -2.0555943163
 H        -7.7875301439        0.2413261506       -0.4335379318
 H        -5.9921207229        0.2690043644       -0.6990707314
 H       -10.5511437456        1.8635245172       -0.5689226931
 H       -11.9547609915        1.0990282546        0.0258274061
 H       -10.3922226179        0.7963116441        0.5026901067
 H       -12.4506965428        3.7638405490        0.0093297803
 H       -11.3761467216        4.7864266854        1.2638709667
 H       -12.8052868171        4.0111037549        1.6535714644
 H       -13.7414157171       -0.7214974953        8.0560107449
 H       -12.4492269372       -1.3369285994        7.1163517334
 H       -13.9303496628       -2.0555241152        7.0297937797
 H       -15.6731220229        0.5308611523        7.0222589058
 H       -15.6257855923       -0.5617990131        5.5748864245
 H       -15.4914447236        1.0273192044        5.2177994246
 H        -9.7020253016        3.2887393393       10.3192507385
 H       -10.8893771829        4.6193740359       10.2598536853
 H        -9.2778176831        5.0568147438       10.2672960400
 H       -11.0702815359        6.4497633156        8.1893513266
 H       -10.0832455268        6.1267629094        6.8623723832
 H        -9.3244044127        6.6190891972        8.2908684974
 Na      -10.3135439857        2.9557375914        4.9988172285
