117

 C        -7.3476412500        4.5148359343        8.3068060435
 C        -8.6384724410        4.2085683423        7.5311554378
 O        -8.6485058099        3.6249402982        6.4488203552
 C        -9.9729213881        4.6245293815        8.1133701949
 C       -11.1659048589        3.9466582146        7.4843200774
 O       -11.4897373504        4.1623132460        6.3246906156
 C       -12.0166180415        2.8284575055        8.3239249892
 C       -13.2208110382        2.2819113976        7.5231263777
 C       -12.7541554322        1.0737252962        6.6457417824
 O       -11.6238413672        0.9781287596        6.2130371650
 C       -13.7401340917        0.0169285454        6.1821463963
 C       -13.1000105978       -0.5313370309        4.8269548077
 O       -12.2863740346       -1.4503161165        4.6882888354
 C       -13.4655976944        0.4952678387        3.6366717238
 C       -12.0362153922        0.8393520043        3.0713283734
 C       -11.8907718149        2.2921674937        2.7367607241
 O       -12.1211227245        3.0865839940        3.6292291851
 C       -11.2111534622        2.8378695880        1.4350784943
 C        -9.6554184161        3.1118724083        1.7977862254
 O        -9.1188977382        2.8448605931        2.8707538478
 C        -8.9312176491        3.7039221075        0.5797866460
 C        -7.6596921194        2.7854562458        0.5381892043
 C        -7.0909622488        2.9407473265       -0.9165915586
 O        -6.7569811815        4.0804957492       -1.2018930807
 C        -7.0768091458        1.7919133683       -1.8468489181
 C        -8.5034443666        1.9942213180       -2.8027236900
 O        -9.2600402941        1.0573786304       -2.8596750671
 C        -8.7619622210        3.3929203052       -3.5271029740
 C       -10.2640942814        3.4165320350       -3.8329000492
 C       -10.6657014967        4.7622887892       -4.2515895283
 O       -10.9356974661        5.5056400250       -3.3767848522
 C       -11.0242516734        5.1863021409       -5.7220271787
 C        -9.9890791782        4.6131861824       -6.6251489732
 O        -9.0607268455        4.0106478530       -6.1703592946
 C       -10.1143291762        4.7624645920       -8.1183670832
 C        -8.8269971202        4.4818604502       -8.7863876639
 C        -7.9304027422        5.6626157312       -8.6065991928
 O        -8.4566741752        6.7412840414       -8.3956202791
 C        -6.1557769845        5.6158285373       -8.7776324437
 C        -5.6719796884        4.9813251068       -7.4636655255
 O        -5.1482555751        3.8554306528       -7.3807784074
 C        -5.7155844264        5.9524324706       -6.2356109882
 C        -5.7931906784        4.9616939191      -10.0539183487
 C        -5.8351314551        7.1627125834       -8.9317495521
 C       -12.4163962616        4.5925959354       -6.0441067703
 C       -11.0920304884        6.7627490547       -5.6988362778
 C        -5.9185663682        1.9412977667       -2.8695576179
 C        -7.2232382348        0.3807673342       -1.3421573707
 C       -11.2877004992        1.8231906210        0.3295643644
 C       -12.0119651123        4.0915450450        1.0117849996
 C       -13.8100958378       -1.0323813512        7.3658579847
 C       -15.2462918853        0.6048686856        5.9899900394
 C        -9.8898117957        4.3675193330        9.6829126628
 C       -10.1513742993        6.1723913142        7.9570903285
 H        -6.4288704013        4.6911137248        7.7954857364
 H        -7.1850515909        3.5971720433        8.8520841456
 H        -7.4363081150        5.2771469518        9.0568744640
 H       -12.3683679651        3.3301805112        9.1599479819
 H       -11.2105765622        2.0916215285        8.3832753147
 H       -13.5663944896        2.8573771703        6.6240850821
 H       -14.1561813383        2.2397604658        8.0770129850
 H       -14.0232178970        1.3376478603        3.9069904439
 H       -13.9292833545       -0.0680439423        2.7877435872
 H       -11.9000736923        0.1154163610        2.2444095034
 H       -11.1351893101        0.7929711766        3.7335328122
 H        -8.7571118147        4.7527525329        0.7366335363
 H        -9.4062832642        3.6940065103       -0.4121644503
 H        -7.8601150437        1.7686828144        0.8338767865
 H        -6.7341680290        3.1109514020        1.1063482636
 H        -8.2076889893        3.4745387366       -4.4831691214
 H        -8.4202769341        4.1521737067       -2.7548407833
 H       -10.8291101984        3.2610324199       -2.9125202231
 H       -10.6156292191        2.6725384141       -4.5274700937
 H       -10.3635638526        5.8399934582       -8.3066703453
 H       -11.0178984715        4.1772908513       -8.4516670657
 H        -9.0153437695        4.2705213060       -9.8173808676
 H        -8.5255184367        3.5263689419       -8.4090682609
 H        -6.6558328853        6.4104405326       -6.2017876812
 H        -4.7921881302        6.5197024769       -6.4261322617
 H        -5.6895807999        5.3514300290       -5.3563099700
 H        -5.4507677771        3.9174514673       -9.6945294610
 H        -4.9312416587        5.3471243919      -10.6836314546
 H        -6.6448383670        4.6879300347      -10.6881782348
 H        -6.2300526905        7.5569926331       -9.8783626289
 H        -4.8016348739        7.5559409460       -8.7941796909
 H        -6.4996866931        7.7238681314       -8.2562922135
 H       -13.1120336405        4.8542086709       -5.2398346774
 H       -12.3945859026        3.5830465649       -6.2332969998
 H       -12.6956811424        5.0200249712       -7.0548839721
 H       -11.0295223261        7.1712483544       -4.6474398553
 H       -12.0902800018        7.1608308192       -5.8873852503
 H       -10.4234446303        7.2359370209       -6.3079058424
 H        -5.0198736643        1.3568636572       -2.6923249939
 H        -5.6399299727        3.0195743490       -3.0647670938
 H        -6.2156721352        1.4982768199       -3.8927276546
 H        -6.7963969595       -0.3493881063       -1.9239415174
 H        -8.2227245510        0.0904218141       -1.3181242605
 H        -6.8662525350        0.3474284627       -0.2816375195
 H       -10.7567824959        2.0977385640       -0.6191747868
 H       -12.3731694198        1.5206345708        0.2413351384
 H       -10.8045280264        0.8528464760        0.4406754274
 H       -12.7856388845        3.7350485932        0.3485682584
 H       -11.3126657516        4.8314580087        0.7168771032
 H       -12.6014190665        4.4802780779        1.8461091962
 H       -13.7480001377       -0.6042020191        8.5058534314
 H       -13.0366793099       -1.8852845083        7.2699578785
 H       -14.7482489720       -1.5459622708        7.2310949241
 H       -15.4894780865        1.2218595160        6.8436962690
 H       -16.0146602257       -0.2167585573        5.8052127166
 H       -15.3616295720        1.1413541727        5.0801401277
 H        -9.7605635360        3.2918854990        9.8538661848
 H       -10.8724298374        4.5918565421       10.1665277131
 H        -9.0816117142        4.8977317864       10.2637081681
 H       -10.8522412626        6.5245810364        8.6386050498
 H       -10.6529229059        6.5407905616        6.9872737998
 H        -9.2258659691        6.8095852043        7.9723811945
 Na      -10.3349003601        2.8188704992        4.8762186997
