117

 C        -7.3481113884        4.4332893312        8.2022426033
 C        -8.7015739911        4.2093107167        7.5008233382
 O        -8.5781325401        3.5369736709        6.5240655559
 C       -10.1099466588        4.7021664045        8.1328987404
 C       -11.2598542543        4.0287220057        7.4136953987
 O       -11.4845562133        4.2843609607        6.2665226992
 C       -12.0480369812        2.9658837196        8.2482130526
 C       -13.1778089861        2.2583207805        7.5993257512
 C       -12.7168788809        1.0835979587        6.7193025779
 O       -11.6582659896        1.0154630330        6.2337839853
 C       -13.9027103730       -0.0753611159        6.3057583692
 C       -13.2158927702       -0.5250922079        4.7819959425
 O       -12.4041067035       -1.4066364520        4.7889608492
 C       -13.2782754131        0.4215195142        3.5371240509
 C       -11.8910421454        0.8874314693        2.9952925537
 C       -11.9100895659        2.4041079858        2.7863632953
 O       -12.2272114908        3.2597156733        3.6445000614
 C       -11.3135011443        2.9116051339        1.3598938587
 C        -9.7471617692        3.2070227343        1.8183960891
 O        -9.3750267915        2.8715007477        2.9072181361
 C        -8.8192516811        3.5600931224        0.7727711670
 C        -7.5359884682        2.7369526448        0.6844813603
 C        -7.1039417165        2.9343312402       -0.8153668769
 O        -6.7451375122        4.0108781898       -1.2212594642
 C        -7.2291054518        1.7491363808       -1.9788538093
 C        -8.5118559228        1.9337509440       -2.7951317829
 O        -9.3611802803        1.1125440012       -2.8786821104
 C        -8.6513989694        3.2449114150       -3.5582173979
 C       -10.1620810598        3.3304264005       -3.8584634609
 C       -10.8649298771        4.8910096293       -4.0464595465
 O       -11.0483580615        5.6728798708       -3.1934023408
 C       -11.0817773059        5.1981902462       -5.5921148457
 C        -9.8919977245        4.5504180551       -6.6620474943
 O        -8.8336547936        3.9814641083       -6.3522108709
 C       -10.1496753567        4.5996167104       -8.2823265152
 C        -8.8009577826        4.4996863341       -9.0470062311
 C        -7.7922185595        5.6397149085       -8.5960169097
 O        -8.3138921757        6.7140747242       -8.3263100020
 C        -6.2932422565        5.5521208134       -8.8002334520
 C        -5.4801569941        4.9274410895       -7.5877051054
 O        -5.2344270308        3.7295715035       -7.6496977755
 C        -5.4625207897        5.7180568489       -6.2343373746
 C        -6.0422168046        4.9408711984      -10.1785201592
 C        -5.7906335708        7.0916743278       -8.8510759287
 C       -12.4765109280        4.6361349473       -6.0914730179
 C       -11.0239982439        6.7226233106       -5.7556420077
 C        -5.9577883506        1.9971302280       -2.9179767749
 C        -7.1122859277        0.2665415778       -1.3817803959
 C       -11.3510150025        1.8856608013        0.2621195946
 C       -11.9389629229        4.3018403948        0.9865949211
 C       -13.9659599229       -1.0708109008        7.4771144013
 C       -15.2156937990        0.7231756513        6.1914390249
 C        -9.8512976522        4.4106988861        9.7087941508
 C       -10.2221150401        6.3281100120        7.9730930663
 H        -6.4774657512        4.6695349801        7.5360283239
 H        -7.0647938174        3.5486430621        8.7175925704
 H        -7.3262397750        5.3139513007        8.9262250014
 H       -12.5597077236        3.6839433741        8.9345671696
 H       -11.2641960309        2.2928452837        8.6311652456
 H       -13.9720343330        2.6851476880        7.0560650212
 H       -13.7333288904        1.7957366855        8.4874630556
 H       -13.7294571714        1.3245176655        3.9043410550
 H       -13.9158478902       -0.0094613684        2.7520370071
 H       -11.6117799383        0.3179843381        2.0816708639
 H       -11.0894216707        0.8310202749        3.6847994206
 H        -8.6985699196        4.6644681696        0.8882721339
 H        -9.2132986885        3.5506474039       -0.3081111115
 H        -7.6485971909        1.6217324883        0.9118302362
 H        -6.6709127216        3.0161458607        1.1613325104
 H        -8.1395685072        3.2689945417       -4.4602203887
 H        -8.2571014948        3.9824552319       -2.8742464600
 H       -10.7501559517        2.7960323166       -3.0735554661
 H       -10.4069602679        2.7568513895       -4.7583035592
 H       -10.7256679654        5.5264567532       -8.7167747621
 H       -10.7871219468        3.7796181913       -8.3935829483
 H        -9.0728009167        4.7255021361      -10.1463583781
 H        -8.5263278543        3.3965027134       -9.1451646592
 H        -6.4570132784        6.2175360248       -6.1522895906
 H        -4.5227341456        6.1826204315       -6.1024646364
 H        -5.6453921294        4.8817611631       -5.5382565020
 H        -6.2203045005        3.7995508726      -10.1235315626
 H        -4.9867527603        5.0521674542      -10.4659504231
 H        -6.7282972247        5.2507625825      -11.0131917793
 H        -6.2016793062        7.7076256818       -9.6764580244
 H        -4.7145637112        7.1649753216       -8.8052505653
 H        -6.1635954536        7.6818810468       -7.9482932381
 H       -13.2780734809        5.2151555690       -5.5613878714
 H       -12.5386703423        3.5543001691       -5.9569750185
 H       -12.5546311271        4.7383722852       -7.2361315697
 H       -11.3578454392        7.1151931567       -4.8194328476
 H       -11.7271906473        7.2638988763       -6.3981347366
 H       -10.0396711324        7.1329859940       -5.9615124959
 H        -4.9522364094        1.6383184583       -2.4893163973
 H        -5.9491174004        3.1124889894       -3.0030294482
 H        -5.9008419653        1.6023477082       -3.9137254264
 H        -6.3660030222       -0.3088074008       -1.8490750740
 H        -7.9638094510       -0.3108570822       -1.3801727315
 H        -6.8073775574        0.4100466436       -0.4031124021
 H       -11.2288668767        2.3135574411       -0.7815461027
 H       -12.2101786817        1.2471602174        0.3756129089
 H       -10.5401154862        1.1393597101        0.1680036133
 H       -12.9806493328        4.1789105387        0.7886607392
 H       -11.2630141431        4.7391014037        0.2396542528
 H       -11.9709401896        4.9325430846        1.8690545002
 H       -13.8573796292       -0.4797506044        8.4507070478
 H       -13.0081586404       -1.6307664738        7.4069564789
 H       -14.7780307217       -1.8908564161        7.5734335602
 H       -15.3899369102        1.1867840804        7.2379687396
 H       -16.0758706763        0.3336877161        5.7520495523
 H       -14.9554981801        1.5314160616        5.5373405625
 H        -9.7933545176        3.3142070691        9.8201567658
 H       -10.7736133208        4.6234985373       10.2225330793
 H        -8.9912220907        4.7905759562       10.1873903987
 H       -10.9674116266        6.7778413851        8.5995783167
 H       -10.5707857719        6.6944905266        6.9561317192
 H        -9.2971549220        6.8298107728        8.0582468523
 Na      -10.1693416078        2.7270373855        5.0440181288
