117

 C        -7.3401481848        4.6876251305        8.1298324254
 C        -8.6703892280        4.2520013188        7.5347641618
 O        -8.6528717696        3.4509321203        6.6086005281
 C       -10.0503651483        4.7625820156        8.1648783118
 C       -11.2099879591        4.1000607139        7.5140652952
 O       -11.5538888550        4.4083533425        6.3805036005
 C       -12.0601280193        3.2835695110        8.4528142227
 C       -13.1244172402        2.3786059518        7.8484579051
 C       -12.7258527887        1.2025117102        6.8223916876
 O       -11.5448445818        1.2020358219        6.2786523802
 C       -13.7116925911        0.2473415668        6.3455070966
 C       -13.2645055553       -0.4331424383        5.0126915196
 O       -12.8702196271       -1.6048662680        5.0644670781
 C       -13.3762546926        0.4696265311        3.6821930910
 C       -12.0075046742        1.0133096661        3.1408025357
 C       -12.1662159920        2.5571540337        2.6757328333
 O       -12.5764232853        3.2700191943        3.5315607341
 C       -11.3309797970        3.0674623423        1.3737770979
 C        -9.7877638004        3.1471355402        1.9124032724
 O        -9.4841591823        3.0018287566        3.1109781559
 C        -8.7004601463        3.5609631743        0.8773655161
 C        -7.6541992149        2.4385932832        0.5760626926
 C        -7.1125726313        2.8292616770       -0.9669161264
 O        -6.6637669703        3.9260170291       -1.1449700751
 C        -7.0714012346        1.7833803927       -2.0897455982
 C        -8.4567192468        1.8366030080       -2.6414041828
 O        -9.3235424118        0.9494664885       -2.5172764725
 C        -8.8219757351        3.2137440029       -3.4067456740
 C       -10.3020298272        3.2245415611       -3.8384413125
 C       -10.6800923386        4.6633885621       -4.3185612128
 O       -11.0734125273        5.5464167622       -3.4940835960
 C       -10.8682920515        5.2471260297       -5.7748153038
 C        -9.7723795544        4.5780270987       -6.7838735805
 O        -8.7202945442        4.2572620947       -6.3144936870
 C       -10.1238975931        4.4553240844       -8.2100759138
 C        -8.8712842678        4.6928046333       -8.9893163002
 C        -8.0340939055        5.7572086069       -8.4665225755
 O        -8.3585231953        6.7530068213       -7.8706672265
 C        -6.3799407934        5.6402654568       -9.0104489947
 C        -5.6123404009        4.5226810286       -7.9949083067
 O        -5.3458115670        3.3549021984       -8.2831852896
 C        -5.1213277240        5.0320318707       -6.5178919958
 C        -6.0911057264        4.9306712567      -10.2801873665
 C        -5.5700736279        6.8687643902       -8.9297859469
 C       -12.2950786346        4.6725188439       -5.9944583376
 C       -10.7227574590        6.7859850605       -6.1913879368
 C        -5.9482881915        1.9575261878       -3.0833071005
 C        -6.8989829880        0.2034634618       -1.4512666919
 C       -11.5677255364        2.1847332289        0.1028637343
 C       -11.6710482260        4.5334570783        1.0992976711
 C       -13.8590458217       -1.0613629157        7.1836080423
 C       -15.2753788051        0.8290979725        6.1528418420
 C       -10.0128168837        4.5918474369        9.7139551818
 C       -10.0464724059        6.3313265623        7.8738191485
 H        -6.5951464843        4.5509891206        7.3317173147
 H        -6.9928118430        3.9043626496        8.9096351844
 H        -7.1773215292        5.7026290739        8.4277164490
 H       -12.5026219334        4.0907104452        9.0295999171
 H       -11.2221746493        2.7854808161        8.9423833953
 H       -13.8483214081        2.8647894713        7.1439306027
 H       -13.7441649889        2.0312961778        8.6237866745
 H       -14.0782972833        1.3114075617        3.8719559384
 H       -13.8395803719       -0.2920630490        3.0030559823
 H       -11.7178455481        0.3820886926        2.3234903916
 H       -11.3212292131        0.8901060960        4.0324706764
 H        -8.2822435304        4.5623266514        1.0001144325
 H        -9.1474928827        3.7040767957       -0.0653262021
 H        -8.0947011423        1.5084024445        0.4781929130
 H        -6.8569645966        2.2949384397        1.4412134171
 H        -8.0730167364        3.3155500527       -4.2680017104
 H        -8.5858764474        4.0973446939       -2.7590705964
 H       -10.8726843077        3.0377038733       -2.9282851330
 H       -10.7136167157        2.5231706947       -4.5745683176
 H       -10.7994193547        5.1922786583       -8.4584414335
 H       -10.6233356057        3.4515539967       -8.3610684282
 H        -9.0729923951        4.9123878358      -10.0390366694
 H        -8.2375664854        3.8087760825       -9.0617896949
 H        -5.8095717779        5.7255539987       -6.1373970800
 H        -4.0641316145        5.3010580418       -6.7961901501
 H        -5.0768642514        4.1999615220       -5.8200468010
 H        -6.9142452146        4.3899184228      -10.6562595099
 H        -5.2234269404        4.3074668978      -10.2345944847
 H        -5.8246602456        5.5661520243      -11.0419636713
 H        -5.9774978861        7.7284613722       -9.4676189523
 H        -4.5277054311        6.6721240938       -9.2521366343
 H        -5.3901425290        7.1702083144       -7.9038503264
 H       -12.9611125421        5.4336611327       -5.5549550796
 H       -12.3317482099        3.7587254552       -5.4266251819
 H       -12.6623346662        4.4349844570       -6.9899564137
 H       -11.6146971077        7.4996824730       -6.3240509797
 H       -10.1549953781        6.9284900787       -7.1002485221
 H       -10.0798882577        7.2855783178       -5.4826099432
 H        -5.0401570779        2.1225374874       -2.6480658572
 H        -6.2198310984        2.8331822513       -3.6436386550
 H        -5.7978460131        1.1055072292       -3.7854498188
 H        -6.2980845896       -0.4553560117       -2.1204957504
 H        -7.9533126930       -0.2419816660       -1.4519907330
 H        -6.4060198014        0.0286758218       -0.3736729961
 H       -11.9040608053        2.8091999165       -0.6939108179
 H       -12.3735898431        1.4687452773        0.2733803518
 H       -10.8129508047        1.5240210101       -0.2703023975
 H       -12.5473649495        4.6884748435        1.7860784383
 H       -11.8413371139        4.6214170431        0.0237465844
 H       -10.9803630111        5.2857151541        1.5190341052
 H       -14.3267882437       -0.8688615565        8.1572163291
 H       -12.9595741564       -1.4990316028        7.4835494679
 H       -14.3870075581       -1.7101118214        6.6929490578
 H       -15.8014658715        0.7081168075        7.0478165084
 H       -15.8008029556        0.1413062964        5.3713271002
 H       -15.4185413912        1.8527636582        5.7692780827
 H        -9.6830697325        3.6314368144       10.0119267368
 H       -10.9555156835        4.7825762195       10.2269358544
 H        -9.0899356024        5.0994625642       10.0064312051
 H       -10.9601563443        6.7928728029        8.1518694678
 H        -9.8319424368        6.6385027233        6.8043581623
 H        -9.2581628203        6.9074625725        8.3877742028
 Na      -10.2419268820        2.4796958701        5.3626877214
