117

 C        -7.2656870952        4.7875584121        8.0799748045
 C        -8.6337226127        4.2952100432        7.5966698278
 O        -8.8144898378        3.4679377656        6.7715873549
 C        -9.9099503091        4.9568253085        8.2858760984
 C       -11.1182290771        4.1160239898        7.7562976955
 O       -11.3347071559        4.2370353114        6.5818937740
 C       -12.0857587427        3.2481663448        8.5995128349
 C       -13.1164305030        2.7507466360        7.7349050590
 C       -12.7656374602        1.4825177913        6.9288434957
 O       -11.5607820918        1.1934982106        6.4956068672
 C       -13.8901069274        0.4657067986        6.4627596592
 C       -13.4685743334       -0.1418838852        5.1266662866
 O       -13.1066245511       -1.2822926658        5.0801342021
 C       -13.7025530270        0.5806073971        3.6275974119
 C       -12.3196635647        1.1616155690        3.0616835762
 C       -12.2725943190        2.6313011878        2.8636646533
 O       -12.9404563630        3.4072387511        3.4699397691
 C       -11.2144660468        3.2124771991        1.7705133380
 C        -9.7226048006        3.1495297371        2.1413546113
 O        -9.3301437190        2.6698716414        3.2285458119
 C        -8.6925813332        3.5222020297        0.9813244052
 C        -8.1849834636        2.1698869620        0.3957920414
 C        -7.1460693306        2.6133398180       -0.7589164243
 O        -6.4046280717        3.5282819709       -0.6030203079
 C        -7.1213368459        1.6167082232       -2.0707322298
 C        -8.5996842697        1.7773389512       -2.6579751690
 O        -9.4432858985        1.0619433701       -2.2490858940
 C        -8.9710973908        3.0847080667       -3.4730291788
 C       -10.3661643057        3.0967894344       -4.0943747026
 C       -10.5329780655        4.5243467055       -4.3034675223
 O       -10.5726319319        5.2555049972       -3.3398142282
 C       -10.7949074348        5.1366838988       -5.7764546511
 C        -9.6660043379        4.6632754090       -6.6881259728
 O        -8.7164087848        4.0690924918       -6.1625431485
 C        -9.8832946639        4.7748252768       -8.1599062430
 C        -8.6484417199        4.3377536048       -8.9788236382
 C        -7.5767539250        5.5457030914       -8.6540116923
 O        -7.7439043369        6.3484775585       -7.8296856193
 C        -6.0989099280        5.3378038252       -9.3047412923
 C        -5.8269598949        3.9699880063       -8.6980114024
 O        -6.0968460558        2.9722521928       -9.3345437006
 C        -5.1187563790        4.0204740422       -7.4021120072
 C        -5.9039114042        5.3725394280      -10.8892820331
 C        -5.0511937782        6.5614015962       -8.9317947100
 C       -12.0619754593        4.4863042585       -6.2233506787
 C       -10.9746839767        6.6356556640       -5.6361425080
 C        -6.1450232101        2.4117789594       -3.1391910240
 C        -6.7905329227        0.1508324592       -1.8095763057
 C       -11.5548468658        2.7497091312        0.3606825763
 C       -11.5994994341        4.7727912654        1.7580393106
 C       -13.7466540386       -0.7178737579        7.3081919792
 C       -15.3099636396        1.0166863843        6.3019991856
 C        -9.9964805352        5.1510652223        9.8119617866
 C       -10.2407387302        6.2971720374        7.6153822257
 H        -6.3225009576        4.2932159154        7.7363153142
 H        -7.1988929750        4.5477460133        9.1712544953
 H        -7.1759905259        5.8886935827        7.8173938813
 H       -12.5131672036        3.8229304203        9.4637881994
 H       -11.5476055976        2.3206960046        9.0455761204
 H       -13.6133354632        3.5705956636        7.1002196381
 H       -13.9221004564        2.4361810466        8.3743140641
 H       -14.4605842165        1.3409932896        3.7140631666
 H       -14.0070295044       -0.2172426019        2.8881901639
 H       -12.2842310873        0.5781750590        2.2076672168
 H       -11.4880243802        0.8943049167        3.6778087491
 H        -7.8912713372        4.1520328426        1.4026017067
 H        -8.9153420741        4.1010846085        0.0569221229
 H        -9.0009785414        1.5924507221        0.0455181784
 H        -7.7751721001        1.4624345004        1.2068786811
 H        -8.2359406726        3.2344388631       -4.2498412847
 H        -8.7218256402        3.8878550435       -2.8419361457
 H       -11.2387714686        2.8174200457       -3.4678998033
 H       -10.3412274590        2.4623426466       -5.0094860983
 H       -10.0138981031        5.8106215865       -8.3811211601
 H       -10.7145156223        4.2061130911       -8.5476319411
 H        -8.8419032951        4.2370021807      -10.1065977594
 H        -8.1605068222        3.3970671808       -8.6475101663
 H        -5.8509662122        4.1837481139       -6.6300352568
 H        -4.3722235166        4.8783974955       -7.5169420914
 H        -4.4892419181        3.1140466288       -7.1639007346
 H        -5.9933609099        4.2910982403      -11.1471361250
 H        -4.9315483433        5.8069706560      -11.1824720221
 H        -6.5984705022        5.8242007695      -11.5370019786
 H        -5.2016814941        7.3674985558       -9.6719064431
 H        -4.0361984910        6.1344147965       -9.0978199730
 H        -4.8623283409        6.9190998509       -7.9172028859
 H       -12.9499373451        4.5788316490       -5.5205504962
 H       -11.8106965910        3.4865346387       -6.3977363286
 H       -12.4672258506        5.1019398439       -7.1250253186
 H       -11.6092124837        7.0894390971       -6.5083877463
 H       -10.0302938775        7.1603289311       -5.6531982611
 H       -11.5763366711        7.0284305276       -4.8719651389
 H        -5.2112547331        1.9671067894       -2.9097061135
 H        -5.8892876668        3.4515937588       -3.1028761090
 H        -6.3988684068        2.0523577086       -4.1364040692
 H        -7.1446542863       -0.3512718096       -2.6693890535
 H        -7.3310433974       -0.1470779912       -0.9305127363
 H        -5.6966496325       -0.0838154238       -1.8139377285
 H       -10.7702469172        2.9508303479       -0.3298091246
 H       -12.2642833011        3.3981176400       -0.1248629436
 H       -11.8781548958        1.7555180690        0.3297750705
 H       -11.6024200138        5.0510405044        2.8350762254
 H       -12.6313025285        4.8785277267        1.4700998439
 H       -10.7955638997        5.3304544767        1.2840659198
 H       -13.7182321757       -0.5141991523        8.3539928390
 H       -12.8509487113       -1.1044746974        7.2300879283
 H       -14.4874818291       -1.4443692969        7.1266168445
 H       -15.8403697095        1.4240498502        7.1484971937
 H       -15.9490385800        0.1306388409        6.0117294441
 H       -15.3734381665        1.6983816595        5.4850244136
 H        -9.7848192761        4.2032589878       10.2395159131
 H       -10.9824729725        5.5451331535       10.1281877684
 H        -9.1647236344        5.8254930363       10.1460997146
 H       -10.9811295528        6.6635457647        8.1683012050
 H       -10.5099664667        6.2938186336        6.5098492730
 H        -9.5503346889        7.1122941034        7.7495110182
 Na      -10.4449274795        2.9985508406        5.1675622303
