117

 C        -7.3839108784        4.7836957014        8.3316602443
 C        -8.6977961492        4.3976992006        7.6429030476
 O        -8.8075674765        3.5955991235        6.6956604523
 C        -9.9782724127        5.0435417711        8.1515002527
 C       -11.3352698210        4.3981011776        7.5797993655
 O       -11.7926054504        4.4641987665        6.4342221759
 C       -11.9426021325        3.3597240522        8.5883525522
 C       -13.1527158997        2.4893935546        7.9612646597
 C       -12.8095077030        1.6049554245        6.7707012287
 O       -11.8589858841        1.6344410522        6.0875007115
 C       -13.8742913051        0.4456481496        6.5031434505
 C       -13.5195665204       -0.2754866979        5.0249861801
 O       -12.9135456251       -1.3196497859        4.9199136068
 C       -13.7114028474        0.8159673112        3.7942475727
 C       -12.3840665207        1.2447260946        3.0314691688
 C       -12.2442651988        2.7853511973        2.9284821025
 O       -12.7108387833        3.4517578294        3.8747503236
 C       -11.3613219568        3.4833180424        1.8387659336
 C        -9.8593775993        3.0944593030        2.1616799969
 O        -9.6337310517        2.6243413901        3.2631761434
 C        -8.7147991796        3.2198958542        1.2696539491
 C        -8.0925295444        1.9529032641        0.5433067041
 C        -7.0927333615        2.4117322420       -0.5323076247
 O        -6.1863128579        3.2325079697       -0.3846673482
 C        -7.1855509556        1.7541758778       -2.0304882730
 C        -8.6330363366        1.7782517403       -2.5673177050
 O        -9.5443058251        0.9702680221       -2.2448012939
 C        -8.8844103933        2.7420172327       -3.6919016834
 C       -10.3304182487        3.0822276735       -4.0593745381
 C       -10.6122248918        4.5191234278       -4.3016013264
 O       -10.5230068324        5.2192246141       -3.2656764644
 C       -10.9362521170        5.0669449375       -5.6941688831
 C        -9.7079570089        4.6626609972       -6.7435664588
 O        -8.7922205967        4.0461413571       -6.3101342288
 C        -9.7872256719        5.0511384203       -8.2607041687
 C        -8.5384462630        4.6002965161       -9.0610243550
 C        -7.3092323945        5.5330035200       -8.7716315865
 O        -7.3589090624        6.5066893140       -8.0361066663
 C        -5.9117380084        5.1853910824       -9.5341205112
 C        -5.5897291000        3.7310953870       -9.1975211574
 O        -6.0447883828        2.7929344623       -9.8614408928
 C        -4.9597275512        3.1768545144       -7.7786097514
 C        -6.1196220254        5.3640129343      -11.0457454212
 C        -4.9578244924        6.2690412887       -8.7885703376
 C       -12.3084391131        4.3947471152       -6.0429218633
 C       -11.0513003995        6.5186293707       -5.7137227127
 C        -6.1206567676        2.4339608329       -2.8330119453
 C        -6.8642136695        0.1821223441       -2.0210605792
 C       -11.7748269295        3.0078652602        0.4073549103
 C       -11.2430680466        4.9900544782        1.9008495481
 C       -13.9172698482       -0.5203722191        7.6809863557
 C       -15.2713161414        1.1860884246        6.6392248314
 C        -9.8918470448        5.0701714804        9.7205485796
 C        -9.9841288336        6.6338549481        7.7147750440
 H        -6.5724323348        4.1907072713        7.9664289805
 H        -7.3267773382        4.5437303526        9.3966272085
 H        -7.1751450413        5.7869645622        8.0462503363
 H       -12.1427040170        3.7897727364        9.5568624327
 H       -11.1470902686        2.7014244904        8.7978288778
 H       -13.9173234906        3.1405371300        7.6785290844
 H       -13.6893513152        1.9113457703        8.7348217793
 H       -14.2595511117        1.7818955057        4.0876853127
 H       -14.3270423151        0.2550355819        3.1117102212
 H       -12.3673389366        0.5927391458        2.0857418512
 H       -11.5230213308        0.9223490951        3.7088176481
 H        -7.9250373898        3.6284119187        1.9329233781
 H        -8.9079122121        3.9335967560        0.5287547491
 H        -8.8976909509        1.2448674668        0.2192588547
 H        -7.5529246229        1.4018722924        1.2998869261
 H        -8.2075283937        2.3868429451       -4.4950529797
 H        -8.2260881984        3.6272580303       -3.3271869755
 H       -11.0054383313        2.7971871326       -3.2376942971
 H       -10.5637358027        2.4604944987       -4.9350325312
 H        -9.8863213470        6.1443217915       -8.4924711278
 H       -10.5993537065        4.4726592168       -8.7838956812
 H        -8.7133966608        4.7615306408      -10.0910790905
 H        -8.2257737734        3.5767867487       -8.9265325706
 H        -5.6374143161        3.4258976453       -6.9233972484
 H        -3.9581119296        3.4773780426       -7.6343005942
 H        -4.8331744887        2.0893711620       -7.8552199359
 H        -6.0480452745        4.4281207738      -11.4629191570
 H        -5.6413812342        6.1470859424      -11.5744718515
 H        -7.1905427029        5.4911008271      -11.1976872168
 H        -5.1730066641        7.3045990200       -9.0418669978
 H        -3.8857329235        6.1167186274       -8.7222016774
 H        -5.1782887139        6.0558865784       -7.7453277957
 H       -13.0814162532        4.8790956348       -5.5284778585
 H       -12.4089957469        3.3181774466       -5.7334301306
 H       -12.4889851219        4.5880059439       -7.0122412320
 H       -10.7845556393        6.9708778771       -6.5944195442
 H       -10.4278001933        6.9580168629       -4.9382752660
 H       -12.0522553276        7.0107214339       -5.7103798115
 H        -5.1804278354        2.6482158452       -2.3311921372
 H        -6.4800253060        3.4425767787       -3.0271279178
 H        -6.1356960110        1.9119961481       -3.8040186736
 H        -6.7671946478       -0.1485317863       -3.0931164396
 H        -7.7051800518       -0.3379408777       -1.4618186389
 H        -5.8343775621       -0.0228640553       -1.6111769176
 H       -11.0153609241        3.0520219320       -0.3783266668
 H       -12.5002378827        3.7524925390        0.0531396277
 H       -12.1880493153        1.9671974814        0.5458237395
 H       -10.3857500885        5.4496601143        2.3790726200
 H       -12.0694804552        5.2735296342        2.6204055197
 H       -11.3297078292        5.2867288554        0.8559324855
 H       -14.2401470193       -0.1834861360        8.7538441794
 H       -12.8872013316       -1.0138493033        7.9536462156
 H       -14.5675277181       -1.3434846372        7.4198513875
 H       -15.6017646301        1.2252319944        7.6563415755
 H       -16.1141684208        0.7402564371        6.1267851325
 H       -15.2757663426        2.2460690449        6.2271792085
 H        -9.7180466761        4.0288564077       10.0571443200
 H       -10.8178472806        5.5332494469       10.0536767356
 H        -9.1201749396        5.7506012331       10.0928549323
 H       -10.7937307893        7.4292028249        7.9995426222
 H        -9.9459113742        6.6522887241        6.6416306690
 H        -9.0764961304        7.2008499591        8.1152775163
 Na      -10.4096736758        2.8982984890        5.2398198098
