117

 C       -12.7434460981        8.0593747771       -4.7049924658
 C       -11.5964888128        8.0519277534       -5.6005406937
 O       -10.9446115067        8.9698839302       -5.9981644184
 C       -10.9574674474        6.6667928899       -6.1254563428
 C        -9.8182914237        6.2724168298       -4.9380607726
 O        -9.7844102551        5.1629800676       -4.4780424926
 C        -8.7758998777        7.3046255388       -4.5656877533
 C        -7.5000304216        6.5101959048       -4.1205862111
 C        -7.6355243443        5.8857099090       -2.7345928013
 O        -8.2765516392        6.4698303619       -1.8740294633
 C        -6.9357126445        4.5370577075       -2.3366715831
 C        -6.0799297442        4.5414572815       -1.0771894557
 O        -4.9812223705        4.0385637992       -1.1398560136
 C        -6.6681545547        5.0225971807        0.2669100620
 C        -5.8224118542        4.6658298185        1.5603811764
 C        -6.5659841214        3.5709887643        2.4675436446
 O        -7.3892326328        2.7744924841        2.0086388617
 C        -5.9888507560        3.4210482298        3.9021412832
 C        -6.5042891473        4.6291213220        4.6996923320
 O        -5.9106662440        5.7057383004        4.6677190238
 C        -7.7034010758        4.4592183324        5.5779989217
 C        -8.9209778076        5.2671932318        5.1556667858
 C        -9.9052654684        4.4501528087        4.2279555954
 O       -10.0380471718        3.2455002789        4.4099282483
 C       -10.7704404642        5.2214906563        3.1432467265
 C       -11.8110306238        4.2233164446        2.5018825660
 O       -11.5160497914        3.1602607556        2.0177302429
 C       -13.2866337123        4.7841936140        2.4251167470
 C       -14.2474047405        3.7454140891        1.8426541534
 C       -13.9015273008        3.2882247097        0.3813901932
 O       -13.4510172224        4.0435507636       -0.4163664903
 C       -14.3226933811        1.7001206064        0.0269653758
 C       -13.0262121688        0.9580070000       -0.4900206239
 O       -12.6595643126       -0.0693762858        0.1487506506
 C       -12.1672653105        1.5501773750       -1.5312137712
 C       -10.8429885790        0.7522043776       -1.8797840290
 C        -9.9151940038        0.6514680394       -0.6574493284
 O        -9.6551597230        1.6229783336        0.0266585672
 C        -9.5427647276       -0.7770524301       -0.2107820234
 C       -10.3964126128       -0.9177261180        1.2991827330
 O       -10.0861042798       -0.2322191359        2.2289217789
 C       -11.3154034262       -2.0541353159        1.4828416507
 C        -9.9561302427       -1.8679694405       -1.1970830326
 C        -7.9516631365       -0.9635538459        0.1392357494
 C       -14.9515987344        0.8973072661        1.2296040885
 C       -15.3272811683        1.5875889029       -1.1577108503
 C       -11.4840199287        6.3909490325        3.8666604939
 C        -9.9807525427        5.8246779342        1.8897093523
 C        -6.4065435571        2.0171204674        4.4176319002
 C        -4.4677479465        3.3585545804        3.8455943873
 C        -8.1618944628        3.5558388058       -2.1228871870
 C        -6.0046423794        4.0073661650       -3.4903940350
 C       -11.9199511959        5.4687785876       -6.1446060853
 C       -10.2711301530        6.9028196175       -7.4481600555
 H       -12.7017769748        7.1246620008       -4.1150556059
 H       -13.6748588970        8.1611125172       -5.2747167774
 H       -12.8737124211        8.9240107886       -4.0903837344
 H        -9.2938323633        7.8918835650       -3.8663199313
 H        -8.6249777108        8.0246509868       -5.3649578000
 H        -6.5870973821        7.1717999951       -4.1373285797
 H        -7.3527127388        5.7465558536       -4.9299866757
 H        -7.6776889727        4.4646183606        0.2460826456
 H        -6.8238787643        6.0954401106        0.2407190078
 H        -5.7245462719        5.5935409083        2.1858795785
 H        -4.8730703246        4.2115987341        1.4172407522
 H        -7.3153529170        4.8235245332        6.5207625116
 H        -7.9897633239        3.4067941428        5.7979806166
 H        -8.6631291707        6.1111189642        4.5634948457
 H        -9.4829017146        5.5169396333        6.1037064627
 H       -13.2413194093        5.5454190990        1.6829659344
 H       -13.7397919151        5.1908422493        3.3132989466
 H       -15.2556887234        4.2068401843        1.6822586768
 H       -14.3480685920        2.8839784437        2.5798551246
 H       -11.8837233585        2.5828700508       -1.2887360488
 H       -12.8502051700        1.5944108745       -2.4165655318
 H       -10.3878488960        1.2382143160       -2.6517155099
 H       -11.0963932359       -0.1994355358       -2.2371955132
 H       -11.7675017021       -2.0015394644        2.4587847221
 H       -10.7325356475       -2.9495484418        1.6493902191
 H       -11.9559309049       -2.2945167990        0.6464486100
 H        -9.7349837210       -1.4752398761       -2.2583412501
 H       -11.0026871565       -1.9682682545       -1.2427835900
 H        -9.4600783317       -2.8618752651       -0.9673114571
 H        -7.5740034000       -0.2791294498        0.9020645151
 H        -7.4091372564       -0.7822964017       -0.8225982967
 H        -7.8443606208       -1.9859731343        0.4766810979
 H       -14.1472652259        0.7620168004        1.9501617803
 H       -15.1542329821       -0.1395231837        0.8000459950
 H       -15.9060178963        1.2761535750        1.6564563115
 H       -15.3682169123        0.5121629226       -1.5107547505
 H       -14.9513316824        2.2479927229       -1.9764714843
 H       -16.3218720831        1.8557752874       -0.7654090041
 H       -10.7038018810        7.0167740701        4.3061521268
 H       -12.0011872656        6.0829019084        4.7956854462
 H       -12.1557845306        6.9073410575        3.1708389059
 H        -9.6146999808        6.8758383428        1.9899059758
 H       -10.7952352171        5.8682571136        1.0940673077
 H        -9.1443268780        5.1832838721        1.5366349226
 H        -6.1607240113        1.9253841413        5.5124585234
 H        -5.8443786171        1.3417629577        3.8296866503
 H        -7.4705213039        1.7385853691        4.3464854677
 H        -4.2509633021        2.6264552106        3.1242209580
 H        -4.1189843162        3.0366225714        4.8070138064
 H        -3.8805488370        4.2876300272        3.5921297962
 H        -7.7940979892        2.5871585153       -2.4523285756
 H        -9.0130942082        3.9144908157       -2.7271452212
 H        -8.4466578318        3.4827139549       -1.1219681154
 H        -6.5272061941        3.7991233081       -4.3613378559
 H        -5.5878964689        3.0473650502       -3.1933024010
 H        -5.2173362956        4.6663325377       -3.7989847068
 H       -11.3393854639        4.5639302884       -6.1528658001
 H       -12.7390441870        5.4270473330       -6.7726430727
 H       -12.4141365446        5.4654635215       -5.2255335976
 H        -9.7108591084        7.8644399852       -7.5851115362
 H       -11.1914563734        7.0015236009       -8.0632551525
 H        -9.6442059704        6.0627193014       -7.8398498743
 Na       -9.6010131099        2.2229562524        2.1981277250
