117

 C        -7.7156028076        4.5664425106        8.9219189383
 C        -8.8366297991        4.5698306180        7.9403207107
 O        -8.9094121839        3.9761532778        6.9225101448
 C       -10.0653571408        5.5655241120        8.3032787806
 C       -11.3254936527        4.8260514400        7.8444862013
 O       -11.9109165690        5.1355767254        6.7900417580
 C       -11.4990716969        3.6013533934        8.6766972107
 C       -12.8494186027        2.6783647642        8.4004489625
 C       -12.5307697929        1.9195374327        7.1595317078
 O       -11.3191799622        1.7717980384        6.7766915915
 C       -13.6606582002        1.0170396927        6.5677684744
 C       -13.8389311204        0.6882026452        4.8657706010
 O       -13.6050474668       -0.3211771913        4.4001214522
 C       -14.5292734842        1.7622009911        3.9503929443
 C       -13.8352216459        2.3262281168        2.6923175614
 C       -12.4892389471        3.0296086132        3.1003702798
 O       -12.3795819124        3.3976420564        4.2122756634
 C       -11.5230236067        3.5800858793        2.1148047388
 C       -10.0984796417        2.9311664844        2.2896365154
 O        -9.7241914552        2.5348584446        3.3954760626
 C        -9.1474969118        2.8239926203        1.0899134315
 C        -8.3967014024        1.3914322637        0.9893638874
 C        -7.1329535954        1.5031758741       -0.1376659170
 O        -6.1230650302        1.9335610276        0.4233413311
 C        -7.2217685353        1.1751648341       -1.6399796655
 C        -8.6152272316        1.7105925339       -2.1653267632
 O        -9.5113212605        1.6628950826       -1.3636192120
 C        -8.6449225220        2.7685856002       -3.3663242139
 C       -10.0100904255        2.8575712042       -4.1520526938
 C       -10.2878494523        4.3776116588       -4.5165702767
 O       -10.4395154217        5.1403032100       -3.6487203685
 C       -10.6476463990        4.7056950057       -6.0374568745
 C        -9.1910264816        4.4910480515       -6.9359971218
 O        -8.4431702549        3.5748783771       -6.6821288282
 C        -9.2283800125        5.2798690637       -8.2439115877
 C        -8.1634380830        5.1132643489       -9.3280228445
 C        -6.6448991355        5.1691640207       -8.8813644484
 O        -6.1252793583        5.5990293773       -7.8941073139
 C        -5.8004443283        4.5475255038      -10.0663212762
 C        -6.3017062905        3.2078027481      -10.5022312976
 O        -6.7226833572        3.0168170082      -11.6262585203
 C        -6.5654800386        2.0567098964       -9.4681058596
 C        -5.9549039624        5.6180801951      -11.2337084786
 C        -4.1900618896        4.5883075917       -9.6836048861
 C       -11.6738763738        3.7687233220       -6.6370098221
 C       -10.9317025648        6.2270498105       -5.9998804912
 C        -5.9093394032        1.6036761324       -2.3574075118
 C        -7.3405894166       -0.3546741513       -1.6113342969
 C       -12.1154328607        3.5019071859        0.6407011578
 C       -11.2602828624        5.0945526989        2.3360041454
 C       -13.3890050692       -0.3010351158        7.3094347795
 C       -15.0640338357        1.4975325192        6.9038854372
 C       -10.1590637923        5.8081027168        9.9668325491
 C        -9.8686463088        6.9821972210        7.7862705095
 H        -6.8084639363        5.0436629034        8.5024009901
 H        -7.5728643054        3.6363249835        9.4183612966
 H        -8.0753069875        5.0940076420        9.8569732915
 H       -11.5865789989        3.9053625783        9.7229251458
 H       -10.6413587932        2.9951045544        8.7189207164
 H       -13.7053299962        3.3396354324        8.2708241843
 H       -13.0235303433        2.0760908497        9.2514669371
 H       -14.8436630862        2.6742160913        4.4535442708
 H       -15.5427632488        1.3022938156        3.6779147177
 H       -14.2683725327        3.0173062727        1.9820289435
 H       -13.5008872891        1.5319836167        1.9526899617
 H        -8.4245948230        3.5423254659        1.2764028357
 H        -9.7322615521        3.1022365677        0.1301937886
 H        -9.0987261509        0.5852264292        0.8401914571
 H        -7.8486225098        1.4205566949        1.8550683510
 H        -7.8792498171        2.5395925500       -4.1703871156
 H        -8.3887865554        3.7953449799       -2.9613649025
 H       -10.8300287608        2.5303367628       -3.5663890253
 H        -9.8368318290        2.2331506203       -5.0265138933
 H        -9.4271048926        6.3394366952       -8.0962390507
 H       -10.1531994191        4.8600920087       -8.8111215335
 H        -8.1364094984        6.0072101845       -9.8862520807
 H        -8.1849317266        4.3070661321      -10.0012562150
 H        -7.1268214959        2.4399373409       -8.6010694894
 H        -5.6790269487        1.5965742548       -8.9759237786
 H        -7.0784719567        1.2189825956       -9.9336653227
 H        -5.9973677995        6.6052920465      -10.6969405249
 H        -6.9570699520        5.4971692272      -11.6520080708
 H        -5.2848948167        5.5198883322      -12.0808899537
 H        -3.8431794611        5.5877574716       -9.3908388733
 H        -3.6709233423        4.2427083269      -10.5828235182
 H        -4.0584917102        3.9739075494       -8.7639348745
 H       -12.5882381444        3.9092759012       -6.1264514213
 H       -11.3840896523        2.7408561088       -6.6245188311
 H       -11.8446784766        4.0530398311       -7.7266022987
 H       -10.6543247836        6.7482278421       -6.9202094664
 H       -10.3728372151        6.7209379511       -5.1647938623
 H       -11.9226512011        6.3811551055       -5.5949206342
 H        -5.0803760655        0.9064390526       -2.0521898497
 H        -5.8332112114        2.6171919094       -2.0966901282
 H        -6.0020985346        1.4349046729       -3.3600670890
 H        -7.3139850840       -0.7950064739       -2.7149127884
 H        -8.3056827673       -0.6129330907       -1.0090010906
 H        -6.4963130238       -0.6945169189       -1.0325074912
 H       -11.8378731490        4.3429541132        0.0215608475
 H       -13.1535960177        3.4249086402        0.7572612375
 H       -11.8684928188        2.5716441081        0.2573206974
 H       -12.2073834989        5.6531365837        2.4645812442
 H       -10.6436340145        5.5466149860        1.5920030984
 H       -10.5483326721        5.0739188666        3.1603694156
 H       -12.8677867161       -0.1302950301        8.2646140891
 H       -12.6862279152       -0.8764162784        6.5379762608
 H       -14.2016583050       -1.0211780720        7.5469747798
 H       -15.3965882616        1.5483869725        8.0078497715
 H       -15.7931341125        0.8216777167        6.4523344165
 H       -15.2296422372        2.4900483055        6.5735704388
 H        -9.9234812339        4.9175304757       10.5304499323
 H       -11.1905343652        6.0985673737       10.0701049521
 H        -9.4676437664        6.5450081624       10.4001634339
 H       -10.8885616824        7.5910593728        7.6571860005
 H        -9.3514481820        7.0054968534        6.8262769906
 H        -9.1026135343        7.4618760038        8.3632145716
 Na      -10.5947163767        3.6518419700        5.3407794465
