117

 C       -12.7354967951        8.0524921969       -4.7595081884
 C       -11.5572383787        7.9265912508       -5.6721696324
 O       -10.8954008491        8.8962930783       -5.9740686698
 C       -10.9510354354        6.5031668246       -6.1681439894
 C        -9.8857347207        6.2053420307       -5.0760602977
 O        -9.9597479550        5.0282855757       -4.6780423951
 C        -8.9155464783        7.2238041955       -4.4961473867
 C        -7.5781183485        6.4410504690       -4.1215971491
 C        -7.6051616346        5.9315683638       -2.6547827301
 O        -8.2951754115        6.5442746007       -1.8128900312
 C        -6.9362746545        4.4896672816       -2.4142602004
 C        -6.0112208186        4.5246307027       -1.1342968438
 O        -4.8414558185        4.1126794996       -1.1188866957
 C        -6.7623657994        5.0929658147        0.2096146763
 C        -5.9033089303        4.6977035930        1.4538569224
 C        -6.5199750063        3.5943494214        2.3560397201
 O        -7.3950178012        2.8821639038        1.9023687058
 C        -5.9101262181        3.3799108324        3.7644724406
 C        -6.4077071528        4.6878680201        4.6677066030
 O        -5.9249662678        5.7746138387        4.4635325744
 C        -7.6848884555        4.4459028890        5.5723015607
 C        -8.8850005821        5.2931198198        5.0954447354
 C        -9.8911566256        4.4286068611        4.1841409359
 O       -10.0631695844        3.3015160766        4.5121313681
 C       -10.7957014271        5.2351362761        3.2011366583
 C       -11.9335493866        4.2848362499        2.6444852914
 O       -11.6442030578        3.2229124277        2.1047131469
 C       -13.3382709914        4.7947065288        2.4848228794
 C       -14.2976548653        3.7905000310        1.8644405602
 C       -13.9675068484        3.1903813676        0.4401472172
 O       -13.4725744153        3.9700171904       -0.3938517500
 C       -14.2109418928        1.7050424634        0.0850059090
 C       -12.8808401023        0.9406800676       -0.3078937205
 O       -12.5742535940       -0.0648537322        0.3010203583
 C       -12.1005082947        1.5552767142       -1.4907223571
 C       -10.8359719226        0.7657285106       -1.8215946270
 C        -9.9684708158        0.6042762373       -0.5970589780
 O        -9.6444384989        1.6338748469       -0.0272872096
 C        -9.5644702885       -0.8012381989       -0.0664099462
 C       -10.1786868968       -0.9466571556        1.3486311545
 O       -10.0088747798       -0.0967905774        2.1913004654
 C       -11.1815007193       -2.1041594729        1.6209100894
 C       -10.0009229657       -1.9711034779       -1.0152960730
 C        -7.9940061223       -0.9128920500        0.1099251133
 C       -14.9232107227        0.9303785435        1.2214484297
 C       -15.2107682506        1.5942813877       -1.2103157774
 C       -11.4619402224        6.4715207861        3.9113429531
 C       -10.0645554604        5.6974119333        1.9938885411
 C        -6.4094835372        2.0856527843        4.3921001332
 C        -4.3444844017        3.5294178820        3.8454552385
 C        -8.1409138911        3.5505803712       -2.1706635437
 C        -6.1073577551        3.9863013946       -3.5334161819
 C       -12.0472575278        5.3816935877       -6.2602033283
 C       -10.2927150838        6.6661065339       -7.5439554734
 H       -13.0206462192        7.2173704803       -4.1895413995
 H       -13.5929752584        8.5224563135       -5.2903101538
 H       -12.5391909737        8.9155380882       -4.1213842888
 H        -9.4648041845        7.6270032272       -3.6566882134
 H        -8.8162222545        8.0394529940       -5.1278326234
 H        -6.7154705568        7.1889575932       -4.2232364997
 H        -7.3964859789        5.6473221993       -4.8962305616
 H        -7.8191755031        4.8126578863        0.1888398244
 H        -6.6032455808        6.1615036586        0.1233650445
 H        -5.7614580625        5.6018445212        2.0894126077
 H        -4.9191110783        4.2431357009        1.2053863934
 H        -7.3990794595        4.6374638705        6.5850051078
 H        -7.9647473472        3.4045802029        5.5705958479
 H        -8.5558912639        6.1307060772        4.5417493259
 H        -9.5612629491        5.5917904903        5.9524323760
 H       -13.2645296754        5.7731537991        1.8830050452
 H       -13.8080797829        4.9777697632        3.4507691418
 H       -15.2837703283        4.3164550231        1.7071788720
 H       -14.4048333523        3.0198038702        2.6529966476
 H       -11.7266527316        2.6012245608       -1.3303469827
 H       -12.7702284813        1.5857405653       -2.3391983608
 H       -10.3486195869        1.4045472607       -2.5827205800
 H       -11.0657843321       -0.1719623727       -2.2388510906
 H       -11.8572669405       -1.8759571458        2.4014817613
 H       -10.6759340952       -2.9544108886        2.1478737168
 H       -11.6565579156       -2.5727414672        0.6989882353
 H        -9.5894338053       -1.6932720159       -2.0249329494
 H       -11.0430715631       -1.9366934778       -1.2750320198
 H        -9.7103641085       -2.9373797036       -0.6185760167
 H        -7.5650991733        0.0302627708        0.5799692763
 H        -7.4912116784       -1.1554956358       -0.8483393176
 H        -7.8790166161       -1.6564251287        0.7818061061
 H       -14.1514789181        0.6907087350        1.9747005732
 H       -15.3743363403       -0.0404527432        0.8481733271
 H       -15.8096127565        1.5499101755        1.6200070536
 H       -15.6926029881        0.6733023162       -1.1846031396
 H       -14.6678304393        1.7981493602       -2.2038169129
 H       -15.9370393422        2.3438577551       -1.0303787943
 H       -10.7646357116        7.1004576336        4.5188790397
 H       -12.1528627314        6.1269656264        4.7590948949
 H       -12.0474073134        6.9212380856        3.1332786849
 H        -9.4446247742        6.5734931128        2.2579347744
 H       -10.6983350111        6.0037731404        1.2046118923
 H        -9.3159792815        4.9295062638        1.7042003505
 H        -6.3717995212        2.1982926252        5.5362880335
 H        -5.8987053393        1.1898214815        3.9782146999
 H        -7.4245571701        1.8655757175        4.1557838167
 H        -3.9720914669        3.2688128496        2.8141049699
 H        -3.9174525475        2.9742304408        4.6565192009
 H        -4.0008521901        4.5303243584        3.9586388356
 H        -7.9585294044        2.6591921812       -2.7214188058
 H        -9.0247272909        4.0284949287       -2.4833212056
 H        -8.1658053645        3.2578986676       -1.1186672837
 H        -6.5185813539        3.7804890360       -4.5112957603
 H        -5.7617401219        3.0176230136       -3.2052057464
 H        -5.1842453492        4.5739459523       -3.6429852957
 H       -11.6558191135        4.5957712139       -6.8594888924
 H       -12.9685898860        5.7489063404       -6.6419830602
 H       -12.3964005738        4.9202281914       -5.3443796407
 H        -9.5435928703        7.4771136677       -7.5493753375
 H       -11.1323916336        7.0363330002       -8.1711678852
 H        -9.7953876082        5.7839363582       -7.9985117693
 Na       -9.6456003310        2.3123914682        2.1973703707
