117

 C        -7.5181502520        4.6916782660        9.1559746985
 C        -8.6196378314        4.8162445583        8.1509624173
 O        -8.6551318881        4.1865501434        7.1357651788
 C        -9.9791431885        5.6557486083        8.5703890540
 C       -11.1561469324        4.8065995069        8.0694936759
 O       -11.6328061630        4.9053842291        6.9818167437
 C       -11.8259861597        3.7373255084        8.8657073201
 C       -12.9628856693        3.0224985445        8.0799329004
 C       -12.5531971605        1.8454659436        6.9778423691
 O       -11.4897922057        1.9333477268        6.3659048985
 C       -13.8338224088        0.8634810462        6.4679245147
 C       -13.7981801116        1.0661291228        4.9158178047
 O       -13.0993290744        0.4012759899        4.2210766848
 C       -14.6592390179        2.1958778575        4.2269149639
 C       -13.9755062073        2.4810357171        2.8385786921
 C       -12.5870327979        3.2144933224        3.1481995987
 O       -12.3464040875        3.4935630936        4.3165888970
 C       -11.5656329186        3.7156159876        1.9639495437
 C       -10.2216364393        3.0722662168        2.3746805408
 O        -9.9804947497        2.5229984870        3.4493908953
 C        -9.1217552176        3.1228124363        1.3295975773
 C        -8.6857432283        1.5835035434        1.1802701935
 C        -7.4326434566        1.5232921396        0.3185260030
 O        -6.3479435095        1.7263422378        0.8756820517
 C        -7.5755051541        1.0211599380       -1.2034440277
 C        -8.6905270013        1.6102376028       -2.1221590129
 O        -9.8083226559        1.2694042865       -1.8598169088
 C        -8.3574089828        2.6635396641       -3.1540836111
 C        -9.6202507862        2.8146467180       -4.2365660708
 C       -10.0626461831        4.2490598439       -4.5429555611
 O       -10.1424837376        5.0769577070       -3.6730262597
 C       -10.4897898707        4.6047234038       -6.1019161832
 C        -9.0812293690        4.7122421657       -7.0014146944
 O        -8.4297285678        3.6681026851       -6.9561322494
 C        -8.6397559212        5.8989945222       -7.8937750526
 C        -8.1541459641        5.2198591465       -9.1877276503
 C        -6.6213736568        4.9116211108       -9.1037356614
 O        -6.0742783825        4.9636880848       -8.0596337013
 C        -5.8092271605        4.3649866649      -10.3295004910
 C        -6.6257409781        3.1488666736      -10.9351673218
 O        -6.8229714328        3.0677485114      -12.0931599348
 C        -6.8958207085        2.0581270172       -9.9235851845
 C        -5.6159879948        5.4568724096      -11.4163714150
 C        -4.3475874931        3.7641004841       -9.9659680508
 C       -11.3099875729        3.4378800931       -6.6279687137
 C       -11.2143851355        5.9858013836       -6.0916053815
 C        -6.1911249191        1.2561307683       -1.9224421143
 C        -7.9662746064       -0.5190397759       -1.0687383030
 C       -12.1062208198        3.2989068249        0.6111657062
 C       -11.4551161299        5.3423849877        2.0971593907
 C       -13.5261985963       -0.6375770993        6.8963187747
 C       -15.1410443422        1.3924297437        7.0402691203
 C       -10.0899613103        6.1999312927        9.9758920896
 C        -9.9108400115        6.8189426987        7.5999979354
 H        -6.6064950713        4.7053463071        8.5824056498
 H        -7.6114430835        3.9803525632        9.9497566582
 H        -7.4273234652        5.6361899188        9.7815842081
 H       -12.2232024068        4.1357464079        9.8651005149
 H       -11.1939867333        2.8744022637        9.1614551969
 H       -13.3459385781        3.9096882569        7.5515597083
 H       -13.6922207808        2.6226956804        8.8423311971
 H       -14.6603478652        3.1536574838        4.7895048898
 H       -15.7119315790        1.9357863135        4.1020454736
 H       -14.3965592829        2.8324518564        1.9379327107
 H       -13.5246680722        1.5672472770        2.5515062940
 H        -8.4615641330        3.9154305976        1.5841719398
 H        -9.6186940615        3.4725931675        0.3429129761
 H        -9.4853128776        1.0231333571        0.6399481312
 H        -8.4037928038        1.3345994355        2.2444152205
 H        -7.5376679851        2.2767892711       -3.8766604476
 H        -8.1658266483        3.6502450627       -2.7160395288
 H       -10.4136770166        2.2301120195       -3.7277130966
 H        -9.3361703676        2.2533000837       -5.1798952882
 H        -7.8658257797        6.4287862239       -7.4529535247
 H        -9.5079821747        6.5952857704       -8.0795334408
 H        -8.1280121434        5.8228123402      -10.0945879254
 H        -8.4907528352        4.2699282847       -9.3491566157
 H        -7.7849365146        1.4595361254      -10.1314223957
 H        -6.7738304917        2.3254030035       -8.8091920659
 H        -6.1421999539        1.2733387381      -10.1345695195
 H        -6.4191557913        6.2311859319      -11.3044624235
 H        -5.4632340384        5.0571638489      -12.4202740219
 H        -4.7116192062        5.9319960768      -11.0581495625
 H        -3.8623936434        4.6614641586       -9.5532367458
 H        -3.7501655801        3.5082655108      -10.8440193181
 H        -4.5201417122        2.9952058406       -9.2184327706
 H       -12.3059228037        3.2694201257       -6.1557065827
 H       -10.6705343309        2.6182129335       -6.5178965854
 H       -11.6228999964        3.6172894105       -7.7416119741
 H       -12.1358505475        6.1385331981       -6.7479685695
 H       -10.4457107259        6.6130789189       -6.4895706291
 H       -11.2380845871        6.3077464568       -5.0792352049
 H        -5.4454969508        0.8967126614       -1.1507830963
 H        -6.1114840658        2.3330429317       -2.0444723031
 H        -6.0691455593        0.5918706940       -2.7543367738
 H        -7.8477266689       -0.8442889763       -2.0764859755
 H        -8.9649005838       -0.4999048704       -0.7345103401
 H        -7.3900730598       -1.0644041810       -0.4879238750
 H       -11.2644204089        3.1092702445       -0.0792282459
 H       -12.6058464542        4.1701685966        0.0554246325
 H       -12.7403023702        2.4309106251        0.7836046638
 H       -12.3570869575        5.6334009328        2.6976838819
 H       -11.4807219576        5.8087499041        1.1375034109
 H       -10.5172180089        5.7388618218        2.4538900256
 H       -13.9258027233       -0.8092892310        7.8032885907
 H       -12.4485457019       -0.7225279918        7.0557209310
 H       -13.8872158310       -1.3729956019        6.2118827899
 H       -15.2192578489        1.1755461910        8.1037366092
 H       -15.9928077092        0.8200286552        6.6219559828
 H       -15.2606086651        2.4347149921        6.9102257568
 H        -9.9857298225        5.4805367777       10.7359692860
 H       -11.0109491867        6.7930324821       10.0242322596
 H        -9.2324431452        6.9251064662       10.0725026790
 H       -10.4407527324        7.6571392615        8.1199400582
 H       -10.2339037856        6.6830334578        6.5698541048
 H        -8.9302442371        7.1131847793        7.4942526843
 Na      -10.0891183981        3.7685099832        5.3985212716
