117

 C        -7.4128077598        4.9385915769        9.2173207904
 C        -8.5536786803        4.7940973931        8.2566543051
 O        -8.4883741499        4.0861337212        7.2489481206
 C        -9.8894634363        5.5836904351        8.5240724329
 C       -11.2282698353        4.9447807361        7.9993948101
 O       -11.5622762110        5.2315759518        6.8710502620
 C       -11.7940785791        3.7915355906        8.7366296867
 C       -13.0967381280        3.1286529693        8.2534679173
 C       -12.7796684360        2.1023289998        7.1998416288
 O       -11.5542400092        1.9863756935        6.8248409991
 C       -13.8018676054        1.1691471500        6.4502770745
 C       -13.6329777372        1.5519220495        4.8463355328
 O       -12.8279105415        1.0131189190        4.2053948946
 C       -14.7960906012        2.4070640726        4.3294047161
 C       -14.1866181346        3.2191575260        3.0473733661
 C       -12.7876701006        3.8100124012        3.2982186047
 O       -12.4713704399        4.3241602538        4.3392983382
 C       -11.6981777457        3.9160731313        2.0798867474
 C       -10.2913350528        3.4508951241        2.5240670978
 O        -9.9198573353        3.2095600468        3.6648313287
 C        -9.3011849300        3.2770385469        1.4167516896
 C        -9.3712525003        1.7558192448        0.8723593995
 C        -7.8034127785        1.3070685464        0.1908623427
 O        -6.8712872532        1.9130037935        0.6217212647
 C        -7.7395636894        0.5950593567       -1.2431650184
 C        -8.7033373642        1.4145161467       -2.1330220970
 O        -9.8308383631        1.0322065365       -2.0505028127
 C        -8.2938327879        2.7435667834       -2.6583265749
 C        -8.8608931816        2.8057275917       -4.1861314653
 C        -9.4213666590        4.1731319432       -4.6119429286
 O        -9.4440995384        5.0774162519       -3.8613784191
 C       -10.1429065263        4.3013552809       -6.0632776334
 C        -8.8641460877        4.3251231522       -7.1335688075
 O        -8.3380561471        3.2681189015       -7.3624461552
 C        -8.4440728445        5.7386050656       -7.6682695181
 C        -7.5827551903        5.5414107731       -9.0268359936
 C        -6.4722459707        4.5744576351       -8.9589306381
 O        -5.8110290488        4.3600004797       -8.0109307814
 C        -5.9344328874        4.0103964102      -10.5239347074
 C        -6.8648569784        3.0917991933      -11.1922890195
 O        -7.1053755701        3.2768261280      -12.4112027953
 C        -7.5742605758        1.7954534620      -10.7270366147
 C        -5.6841961410        5.2252967651      -11.3707115823
 C        -4.6139671821        3.2799112591      -10.2094103715
 C       -11.1000088922        3.1017375497       -6.4288500629
 C       -10.7492567032        5.7710962206       -6.0281530408
 C        -6.3683293867        0.5791972260       -1.9126062254
 C        -8.2985550947       -0.8760236056       -0.9960673633
 C       -12.1746539465        3.0989341172        0.9102023557
 C       -11.5323147084        5.3763699238        1.5598224662
 C       -13.1496824552       -0.2369274893        6.7261656852
 C       -15.2575150331        1.0259535346        6.9860381787
 C       -10.4038193436        5.9700345505       10.0238916542
 C        -9.6871379861        6.9257171644        7.7574078431
 H        -6.9355720056        4.0498609905        9.5784349848
 H        -7.5331140538        5.6364910316        9.9486951872
 H        -6.5653418412        5.3139900014        8.6240127406
 H       -11.9605144395        4.0053889031        9.8270354193
 H       -11.0310964940        3.0145199268        8.5945343849
 H       -13.6059505497        3.9478937998        7.6861840498
 H       -13.6094929073        2.8433207797        9.1930777026
 H       -15.2759608203        3.0638879933        5.0366911393
 H       -15.5714657969        1.7232284211        3.8853385190
 H       -14.8711946228        3.8842340478        2.5543487048
 H       -13.8820050342        2.4645056632        2.3424359339
 H        -8.3597481506        3.3225544601        1.8887227076
 H        -9.2394334047        4.1366110299        0.5834457291
 H       -10.0558428369        1.3839182462        0.0249766272
 H        -9.4129958199        1.0179042170        1.7138275065
 H        -7.2185226380        2.8288280358       -2.8960553318
 H        -8.7010489516        3.5644867928       -2.1751902014
 H        -9.5953794123        2.0156331675       -4.3560711565
 H        -8.0164563217        2.5512011815       -4.8941926112
 H        -7.8846870746        6.1886741705       -6.9108937467
 H        -9.2446691805        6.4833983067       -7.9435637630
 H        -7.1117725870        6.5516217169       -9.1290186038
 H        -8.2126722075        5.2532581544       -9.8773115068
 H        -7.3289324361        1.1231284792      -11.5416682450
 H        -8.5876412227        1.9792387211      -10.4494718233
 H        -7.1889116854        1.2911917301       -9.8755422104
 H        -6.3431288179        5.0615379999      -12.2423122079
 H        -4.7303227902        5.1730350254      -11.7595268809
 H        -6.0201047742        6.1226005549      -10.9671620599
 H        -3.9332205278        4.0757483887       -9.9799068466
 H        -4.3436946277        2.7570704770      -11.1073980689
 H        -4.8019058020        2.4868163515       -9.5113100814
 H       -11.6833047779        2.8805313597       -5.5791766583
 H       -10.5489080793        2.1722185962       -6.7573724431
 H       -11.7302313064        3.4479850765       -7.2851093554
 H       -10.9229113934        6.2410938774       -6.9740991459
 H       -10.0805143311        6.3592649256       -5.3723989842
 H       -11.7357546014        5.6227538613       -5.6692510477
 H        -5.8444799945       -0.2948937739       -1.2953865838
 H        -5.8027694206        1.4935270732       -1.6889101831
 H        -6.4579153475        0.3754159130       -2.9709835806
 H        -8.1801458813       -1.4190910054       -1.9226069884
 H        -9.3009415452       -0.8557846479       -0.6088797581
 H        -7.6501787009       -1.2974964856       -0.2889050054
 H       -11.6188188128        3.3014432022       -0.0774434098
 H       -13.1966320676        3.3182122516        0.5477731893
 H       -11.9655679086        2.0313000782        1.1888522148
 H       -12.1722720456        5.6298990801        0.6801489767
 H       -10.5195230617        5.7568883944        1.4197311183
 H       -12.1316721061        5.9862851274        2.2552626608
 H       -12.6414287172       -0.2533186807        7.6806145783
 H       -12.3149817101       -0.3549961596        6.0594705190
 H       -13.8681352836       -0.9085757165        6.6130762088
 H       -15.2177442533        0.5297405825        8.0062850942
 H       -15.7316515165        0.2696486516        6.3452682264
 H       -15.8606832461        1.8728073284        6.9235251158
 H       -10.2163835227        5.1575141575       10.6959618897
 H       -11.4822009328        6.1196378073       10.1159695946
 H        -9.9217443605        6.9273461272       10.3155563725
 H       -10.6770307942        7.4270268805        7.3915434464
 H        -9.0627660573        6.7820321679        6.9210392635
 H        -9.2637661336        7.6596867184        8.4000994523
 Na      -10.2424220890        3.4519634863        5.8578900461
