117

 C        -7.5325504110        4.9999434873        9.1413308208
 C        -8.7043785893        4.7710942305        8.3121641805
 O        -8.7579732890        3.9823259467        7.3610484178
 C        -9.9673693759        5.6557477103        8.5649810461
 C       -11.1815835152        4.8909148005        7.9907364226
 O       -11.7407821831        5.2948198059        6.9219919851
 C       -11.8678726842        3.7394550580        8.8839750901
 C       -13.1133763104        3.2246833290        8.0907601674
 C       -12.6598359349        2.1789414208        7.1321123600
 O       -11.4421386614        1.8502938590        6.9524511365
 C       -13.7199290712        1.1238993174        6.4750958249
 C       -13.7661235256        1.6139884821        4.9724938625
 O       -12.8776277723        1.2579970439        4.2016674740
 C       -14.7260480346        2.6633041500        4.3607550361
 C       -14.1290699285        3.1702625746        3.0562616111
 C       -12.7286039266        3.9258401637        3.3085405654
 O       -12.5051822981        4.3813334431        4.3679150140
 C       -11.7477725532        3.9913987634        2.0918144662
 C       -10.2706752163        3.4701585946        2.5115425818
 O        -9.9423070628        3.3947352390        3.6856942691
 C        -9.2569111748        3.1294094117        1.3257176488
 C        -9.2062295554        1.7027570661        0.8935042029
 C        -7.9053645997        1.5170038034        0.1263637080
 O        -6.9385323188        2.0068719633        0.6030742952
 C        -7.8080857120        0.4853095936       -1.1191816363
 C        -8.8376473600        1.3507296372       -2.1691566216
 O        -9.9848258704        0.9788643025       -2.3022629711
 C        -8.3349282401        2.6150155805       -2.7648180563
 C        -8.7206694749        2.7402493248       -4.3034513634
 C        -9.2635016900        4.1137937760       -4.6599054855
 O        -9.2815742481        5.0616388124       -3.8676925220
 C        -9.9243990381        4.3529301465       -6.0600075025
 C        -8.7788511143        4.2569034529       -7.1789005128
 O        -8.3699487344        3.1844020858       -7.5687879066
 C        -8.2486587758        5.5319929457       -7.6402630994
 C        -7.5650882554        5.4844942727       -9.1353094812
 C        -6.3535239358        4.4940460824       -9.0168702254
 O        -5.8024024522        4.1749724517       -7.9577548944
 C        -5.9326281493        4.0034954936      -10.4170365921
 C        -7.0354533488        3.0564559720      -11.3037780794
 O        -7.2480077671        3.3703800807      -12.4683510028
 C        -7.6509592154        1.7862443372      -10.6441174509
 C        -5.6274461621        5.4124050153      -11.2409564275
 C        -4.6931677832        3.0201228677      -10.3393926369
 C       -10.8921750304        3.1863723495       -6.1978786915
 C       -10.7676942283        5.6522117273       -6.1036554084
 C        -6.3127860511        0.3775908625       -1.7351520073
 C        -8.4076802513       -0.8635980183       -1.0687674901
 C       -12.1884188925        3.0447737844        0.8886163433
 C       -11.6214589190        5.4551527028        1.5648837906
 C       -13.1327204840       -0.2859721036        6.6140132924
 C       -15.0807791819        1.1195863409        7.1182124530
 C       -10.1601999565        6.0387911276       10.1632794729
 C        -9.6751642296        7.0661792021        7.8635760927
 H        -7.2696300019        4.0838756180        9.7381871984
 H        -7.5075558337        5.8792199562        9.8148896035
 H        -6.6263929512        5.0353702366        8.5762989004
 H       -12.2755808261        4.1659720405        9.8374288062
 H       -11.2081975454        2.8596734875        9.0279332221
 H       -13.6162139428        4.0796089655        7.5340672479
 H       -13.7112540475        2.7864855580        8.8856484590
 H       -14.8704039377        3.6188465868        4.8429804806
 H       -15.7616855152        2.1417074454        4.2093618809
 H       -14.8029504150        3.9210043501        2.8053493626
 H       -14.0161766195        2.4794227262        2.2579170848
 H        -8.2346978653        3.5097680877        1.5233742764
 H        -9.5448217831        3.6846367017        0.4347256904
 H       -10.0161970812        1.3464208239        0.1764050484
 H        -9.0320693161        0.8732938457        1.5328794916
 H        -7.2845584764        2.8185330680       -2.6769441344
 H        -8.9781883952        3.5404887841       -2.4100799425
 H        -9.5565302287        2.0194289101       -4.4380167101
 H        -7.9555877918        2.4256778541       -5.0503483051
 H        -7.7419784554        6.0001736201       -6.8222759296
 H        -9.0806469882        6.2374710828       -7.8287020878
 H        -7.3391155344        6.4607311745       -9.3512080409
 H        -8.2768219038        5.0939144650       -9.8770809136
 H        -7.2985363193        0.8184877588      -11.1013353822
 H        -8.6638671584        1.9427223656      -10.3877126402
 H        -7.2010427984        1.7581278257       -9.6272959557
 H        -6.3799292791        5.2700990726      -12.0035267515
 H        -4.6851972551        5.4437972199      -11.7250061302
 H        -6.0473848129        6.2592557658      -10.7536788546
 H        -3.9088507159        3.5395236675       -9.8360521945
 H        -4.5288072124        2.8040781482      -11.3696276575
 H        -4.9822332861        2.0161176773       -9.9955956030
 H       -11.4696802588        3.2291578946       -5.2488964866
 H       -10.4054094579        2.1249286301       -6.2910900579
 H       -11.4981189591        3.3448912235       -7.0874115290
 H       -11.2412461750        5.8140405999       -6.9913696554
 H       -10.2319004998        6.5364299475       -5.6958897002
 H       -11.6467796035        5.2847666720       -5.5749672206
 H        -5.9952568008       -0.6126732709       -1.4975319284
 H        -5.6078906058        1.0780434611       -1.2292877958
 H        -6.3607285795        0.6093102700       -2.8324186254
 H        -8.3655307291       -1.2213578673       -2.0136681286
 H        -9.3951646161       -0.7173392458       -0.8451400880
 H        -7.9233003411       -1.5333085119       -0.3443933084
 H       -11.3929773102        2.7320287590        0.1493269939
 H       -12.9155195313        3.4756032789        0.2190233107
 H       -12.4797224838        2.0408257064        1.3347010939
 H       -11.9815283787        5.6438606843        0.5747515679
 H       -10.5555094701        5.7458960890        1.5383995426
 H       -12.2787482886        6.1673938536        2.0889083656
 H       -12.5577101406       -0.3213843030        7.5130020575
 H       -12.4358529643       -0.3676527509        5.8967936934
 H       -13.9761204190       -0.9863629927        6.5108426130
 H       -15.0307333309        0.5453507386        8.0782324970
 H       -15.7845177435        0.6610242355        6.4992384069
 H       -15.4013851168        2.1484383992        7.2072377573
 H       -10.0957397997        5.0562158711       10.6790423238
 H       -11.1347854043        6.3913490036       10.4628501954
 H        -9.4446288917        6.7502113796       10.4707715078
 H       -10.4470548700        7.6668588341        7.5044138791
 H        -9.0922866871        6.7620852225        7.0241474010
 H        -9.0540621149        7.7177107822        8.5624036497
 Na      -10.2362302467        3.4904765253        5.7755633678
