117

 C        -7.5857983434        4.9067059737        8.8457820924
 C        -9.0234447359        4.7885077691        8.4848976512
 O        -9.2043484096        3.9979933723        7.5803503968
 C       -10.0262623255        5.8052568192        8.9413515098
 C       -11.4978881411        5.2242685085        8.3378796745
 O       -11.8836685696        5.6850145950        7.3202644634
 C       -11.8885255721        3.9659112779        9.0537683849
 C       -13.1802458386        3.2187836834        8.4136242787
 C       -12.7280479313        2.1340480034        7.4102363765
 O       -11.5757840486        1.9842598107        7.2660900936
 C       -13.6230610521        1.3928856987        6.5267204137
 C       -13.4500254510        2.1942480576        5.1332097008
 O       -12.6436644231        1.8550722745        4.2759157591
 C       -14.5669413285        3.2555433211        4.8266616237
 C       -14.2358431286        3.8639880251        3.3909722003
 C       -12.7070369678        4.2726818295        3.3099080462
 O       -12.2500488724        4.8434174397        4.3272815699
 C       -11.9176132115        4.1474359988        1.8702168833
 C       -10.4009337650        3.5453167800        2.1722370098
 O        -9.9381578122        3.4549423950        3.2864624126
 C        -9.5269935587        3.1388276802        0.9492317747
 C        -8.8862380528        1.7499777536        1.0502749073
 C        -7.9559584019        1.5050044319       -0.1444673678
 O        -6.8583873709        2.1193736110       -0.1581235141
 C        -8.1461553390        0.3194569121       -1.1116842888
 C        -8.6667304763        1.0596283560       -2.4413892261
 O        -9.6378308994        0.6206838378       -2.9824333682
 C        -7.8769850051        2.3529926156       -2.9605650455
 C        -8.1219096375        2.5876449982       -4.4204281322
 C        -8.7828465297        3.9395849758       -4.6720671913
 O        -8.3340584695        4.9285365236       -4.1061426161
 C        -9.7332150923        4.0315412420       -5.9051984265
 C        -8.9697755807        3.9033957948       -7.3574680538
 O        -9.1656278929        3.0144293698       -8.1342971367
 C        -7.8078461823        4.8894010820       -7.4291729647
 C        -7.0688377630        5.0221554387       -8.8019653229
 C        -5.9729507060        4.0369782419       -9.1563013410
 O        -5.4262827175        3.3834212365       -8.3302344891
 C        -5.7446786029        3.6188691059      -10.8830970708
 C        -7.2200090977        3.3094486403      -11.4365673003
 O        -7.8274469940        4.2288067576      -11.9827704378
 C        -7.8428280147        1.8820849090      -11.1726922172
 C        -5.2175156630        4.7593785156      -11.5840655676
 C        -4.8573783354        2.3177926293      -10.8930983965
 C       -10.7848632504        2.9099795288       -5.7839632311
 C       -10.5253364785        5.3910151225       -5.7643293431
 C        -6.8518113167       -0.5579120038       -1.3154683331
 C        -9.4027886778       -0.6382712934       -0.6352100669
 C       -12.6217218179        3.2067148445        1.0122464029
 C       -11.9244208557        5.6078120850        1.3530676872
 C       -12.9360463875       -0.0389290042        6.4290213242
 C       -15.0507949876        1.2792510889        7.1433184298
 C       -10.1173496352        5.8530801365       10.4826645833
 C        -9.4812088257        7.2368082172        8.3057418797
 H        -7.1473087220        5.7178684600        9.4204019584
 H        -6.8909361346        4.7837437171        8.0003807348
 H        -7.5487519077        3.8977791985        9.3984434698
 H       -12.0910682911        4.3276368755       10.0656537015
 H       -11.0137950303        3.2496274883        8.8929084786
 H       -13.9199284098        4.0043394328        8.0818826425
 H       -13.6890750141        2.6420280079        9.2502102668
 H       -14.6779884988        3.8898878774        5.7528026851
 H       -15.4511033602        2.6398503288        4.6984644447
 H       -14.9445719858        4.6576274703        3.3051699105
 H       -14.4538498150        3.0842400497        2.7269473091
 H        -8.9344842135        4.0631708811        0.7783868030
 H       -10.2308392550        3.1902668333        0.1409194133
 H        -9.7422591406        1.1013001671        1.1386939772
 H        -8.3840258094        1.5850352468        2.0205878983
 H        -6.8364438964        2.4324457137       -2.5487242593
 H        -8.3822653808        3.2289427025       -2.3517591297
 H        -8.4942955948        1.6066661484       -4.8168107342
 H        -7.1530995157        2.6974720338       -4.9320408940
 H        -6.8906826779        4.5707066898       -6.8590354306
 H        -8.0981686769        5.7792579998       -6.9681244359
 H        -6.5447161026        5.9526159920       -8.9887513062
 H        -7.7537476087        5.1904454661       -9.5769417034
 H        -7.2225377791        1.0346256192      -11.0165104531
 H        -8.6120692519        1.7524759605      -12.0081143979
 H        -8.5016259607        1.8175029818      -10.2850636307
 H        -5.0529701267        5.6266326785      -11.0118181332
 H        -5.8817310384        5.0299523254      -12.4357906634
 H        -4.3197689005        4.3075420734      -11.9646933383
 H        -3.8355696478        2.6123541047      -10.6640970945
 H        -5.0256622195        1.7929761166      -11.8416017761
 H        -5.1364892809        1.7717269142      -10.0078126357
 H       -11.2360723462        2.9436786170       -4.7424010601
 H       -10.2368653946        1.9984172062       -5.8477513006
 H       -11.5484393719        3.0163335846       -6.6680575994
 H       -10.9542977626        5.6881966718       -6.8092666804
 H       -10.0190442921        6.1736748944       -5.2874838765
 H       -11.3506604714        5.2058238655       -5.1053300304
 H        -6.7113006075       -1.1698639328       -2.2705670464
 H        -6.7447646861       -1.1872765384       -0.4339975864
 H        -6.0843317325        0.1582557439       -1.0821208852
 H        -9.6236910159       -1.4637556531       -1.2900950683
 H       -10.3136403280       -0.1157963625       -0.4897765751
 H        -9.1284078078       -0.9758380449        0.2564226041
 H       -12.0746468554        3.0990893261        0.1110332020
 H       -13.7404863192        3.4062495847        0.9500750178
 H       -12.5808457924        2.1722530181        1.3307667735
 H       -10.9088849804        5.7600539961        0.9517114632
 H       -11.7937618550        6.3966899425        2.1177569026
 H       -12.6899732120        5.9357549260        0.6535854809
 H       -13.5999735272       -0.6958040755        7.0159206372
 H       -11.8262229393        0.0713111339        6.5582660817
 H       -13.0599887450       -0.3014789831        5.4370483637
 H       -15.0286006883        0.5122400640        7.8200223634
 H       -15.6640156555        1.0281056494        6.2723797363
 H       -15.3643249972        2.1935647945        7.6750272630
 H        -9.8820514065        4.9797513812       11.0720045496
 H       -11.1003398405        6.2531995247       10.7598493643
 H        -9.3220105721        6.5799647688       10.7125730120
 H        -9.7000097723        8.1160449243        8.9910518237
 H        -9.8066516550        7.4700399237        7.2980790106
 H        -8.4662134922        7.1168710016        8.4559659042
 Na      -10.6879141759        3.9251579283        5.9125630675
