117

 C        -7.4194694637        4.7692556085        9.1921107305
 C        -8.6863661058        4.8359713954        8.3605933597
 O        -8.7802865690        4.3964116591        7.2881640983
 C       -10.0055334402        5.6052970841        8.9911689549
 C       -11.4096688469        5.0225630763        8.6211348790
 O       -12.0190516319        5.4112464122        7.6393123251
 C       -12.3458473102        4.0722992246        9.5208420956
 C       -13.3641034043        3.2927203546        8.6317861129
 C       -12.7287680012        2.4324315383        7.5001741369
 O       -11.5276470183        2.5036064777        7.2179158647
 C       -13.6101260942        1.6047135666        6.5560100475
 C       -13.3908680886        2.4706691104        5.1658066399
 O       -12.3787940417        2.3436574929        4.5054997695
 C       -14.5116017199        3.4909910634        4.8623540828
 C       -14.2453720726        4.2284879156        3.5467067482
 C       -12.7464551579        4.5400724676        3.2539500242
 O       -12.1983304224        5.1831509098        4.0902057681
 C       -12.0706168779        4.1836883402        1.9126363130
 C       -10.5930103314        3.5980192891        2.2251097503
 O       -10.2170032020        3.2903062111        3.3388903320
 C        -9.6586791350        3.3383652070        1.0526644653
 C        -8.8262642128        2.0791413610        1.1846544469
 C        -8.0419025508        1.5979795975       -0.0533459847
 O        -7.0453949358        2.2998203888       -0.3311785755
 C        -8.5406966337        0.5079633674       -1.0427083712
 C        -8.6127482353        0.9796597834       -2.5879260110
 O        -9.3890731930        0.3788509737       -3.2882971603
 C        -7.4629740428        1.8068609743       -3.0973519634
 C        -7.7061436188        2.3039439633       -4.5765268783
 C        -8.3772233257        3.6811480286       -4.7881626198
 O        -8.0367565627        4.5877001906       -4.0050778994
 C        -9.5139844621        3.8581979084       -5.9499031346
 C        -8.7948258168        3.7524974391       -7.3522592830
 O        -9.3283889651        3.3287948494       -8.3364656946
 C        -7.4040508383        4.4366503786       -7.3404051822
 C        -7.0945018447        4.6098548719       -8.8377283064
 C        -6.1398556399        3.5223432631       -9.2379833149
 O        -5.3155227572        3.0166120582       -8.4823071960
 C        -5.9357692286        3.3247695272      -10.8484700645
 C        -7.3072387246        3.3385228766      -11.4314895962
 O        -8.0812635530        4.3129998145      -11.4954191931
 C        -7.9831032058        1.9790895711      -11.9706885397
 C        -5.2814194304        4.6058298791      -11.2600473441
 C        -4.9788134669        2.0211026234      -11.0563302451
 C       -10.7139921857        2.8241653953       -5.7826053928
 C       -10.0559792823        5.3512696779       -5.8233880434
 C        -7.4886963111       -0.6269791271       -1.0684084657
 C        -9.7366596328       -0.2384669603       -0.4931031123
 C       -12.7305299673        3.1622402737        1.0693165537
 C       -11.6909308336        5.4857439915        1.2235329063
 C       -12.9967111039        0.1359282732        6.4695074355
 C       -15.1187326430        1.4861887684        7.0586484375
 C        -9.8124955031        5.7388602986       10.5105751897
 C       -10.0176547686        7.2878009028        8.4279685701
 H        -6.8732909196        5.6634915779        9.1725237460
 H        -6.7078652864        4.0562469643        8.8333053840
 H        -7.6970330433        4.4884369042       10.1637193929
 H       -12.9519897751        4.6734848206       10.2007024069
 H       -11.7618595043        3.2841733503       10.0105555772
 H       -14.0632892497        3.9581173373        8.1059681805
 H       -14.0189489669        2.7731880929        9.2985409710
 H       -14.7168791248        4.0542106126        5.7510286880
 H       -15.3131183572        2.7280811005        4.7358211644
 H       -14.8440022215        5.1388944260        3.5971927065
 H       -14.6460850269        3.5673374207        2.7887224245
 H        -8.9120404785        4.2197199611        0.7782545771
 H       -10.2935313368        3.3011928240        0.2491368019
 H        -9.5903626399        1.3239572703        1.4530391579
 H        -8.2063708442        2.0352793416        2.1304708234
 H        -6.6255493595        1.2935235983       -2.8753905225
 H        -7.3318718282        2.7016990133       -2.5082059075
 H        -8.1522844394        1.5481133982       -5.2367514169
 H        -6.6848624653        2.3268988756       -4.9103427933
 H        -6.5849910693        3.7832998381       -6.9503118422
 H        -7.2924348227        5.3438964850       -6.8264685485
 H        -6.6000444577        5.5676373958       -8.9692033820
 H        -7.9725138525        4.8947079332       -9.4011727132
 H        -7.4735090689        1.0462611376      -11.9832172077
 H        -8.4673446561        2.0879394526      -12.9707332549
 H        -8.8000415595        1.7552786804      -11.3055948405
 H        -4.3199673283        4.5953916090      -10.8028150516
 H        -5.7648346217        5.4185769237      -10.6977238141
 H        -5.2931973200        4.6615263979      -12.3550100738
 H        -4.1811807200        2.0131296898      -10.3031105517
 H        -4.5254745394        1.9748556842      -12.0713059032
 H        -5.6529486785        1.2336340933      -10.7341862988
 H       -11.1661618356        2.9426911322       -4.7890118722
 H       -10.4264996711        1.8847896313       -6.0003444578
 H       -11.5218948904        3.1374663234       -6.4672804841
 H       -10.6716943373        5.7033219915       -6.7223250407
 H        -9.3131403578        6.0748048906       -5.6819289076
 H       -10.5008742285        5.3424882196       -4.8439685968
 H        -6.5137969823       -0.2809084324       -1.4700991697
 H        -7.8908369245       -1.4239794984       -1.6988817771
 H        -7.3539004192       -1.1062934693       -0.0708423478
 H       -10.0709036745       -0.9758016677       -1.3201756816
 H       -10.5822581833        0.5299964058       -0.3197985162
 H        -9.6106866862       -0.8067089983        0.4066318299
 H       -12.2092914243        3.0490299849        0.1200475530
 H       -13.8172610966        3.4063227791        0.7235601693
 H       -12.8972938691        2.2097632602        1.5904992625
 H       -11.4007741002        6.1654556906        2.0327414547
 H       -12.5229877121        5.9019772517        0.6033603891
 H       -10.9292403685        5.4671806816        0.4662731011
 H       -12.7610501370       -0.1048318201        7.4590392798
 H       -12.1728431781        0.2428912247        5.7708817215
 H       -13.6602134911       -0.5916960882        6.1658054623
 H       -15.0697732382        1.2458195378        8.0639436500
 H       -15.5958412445        0.6944599806        6.4888758501
 H       -15.5929502175        2.5250080291        7.1077472649
 H        -9.6944997873        4.7872237925       11.0955004481
 H       -10.5652147725        6.4140276720       10.9635850852
 H        -8.8816098882        6.2748979753       10.6632419050
 H       -11.0683162099        7.5747810479        8.4009112582
 H        -9.7182636979        7.1717085651        7.3560075314
 H        -9.3830031325        8.0125409566        8.9495145782
 Na      -10.7611787822        3.8006176473        5.3878365543
