117

 C        -7.6472045230        4.5731495661        8.9515850224
 C        -9.0272420621        4.8873728859        8.3257141631
 O        -9.0575796585        4.8868838705        7.0419340073
 C       -10.1639528984        5.5925898955        9.0351391411
 C       -11.4244911882        4.9086964718        8.6109359074
 O       -11.6921790141        5.0964224314        7.4407312683
 C       -12.2184352899        4.1294958294        9.6152737187
 C       -13.1912092447        3.1800980618        8.9328803695
 C       -12.6499345447        2.6061745452        7.6693976329
 O       -11.4305527565        2.7109655754        7.4824901621
 C       -13.6024194697        1.8721246472        6.6236437760
 C       -13.5424461137        2.6296442462        5.1883606052
 O       -12.6654043433        2.2844197634        4.4343159498
 C       -14.5703385187        3.9102115315        4.7917562949
 C       -14.1351106537        4.3337527998        3.4558025657
 C       -12.7179256847        4.6301292944        3.2469321953
 O       -12.1085075483        5.2340361939        4.1678848087
 C       -12.0042973301        4.2520829783        1.9514677207
 C       -10.4980736181        3.5292881870        2.2331574603
 O       -10.1066506939        3.3614707816        3.3420705857
 C        -9.6858618518        3.2047433199        0.9418142471
 C        -8.7780870910        1.9685637067        1.2669136427
 C        -8.0760863665        1.7230237315       -0.0997385644
 O        -7.1692844808        2.4115975715       -0.3786223793
 C        -8.5663614025        0.5477907448       -1.1244798689
 C        -8.4802028110        0.8584827446       -2.5925095060
 O        -9.4138583691        0.5080271789       -3.2559112880
 C        -7.4114113149        1.6887723072       -3.2791497725
 C        -7.6987992302        2.0069965951       -4.6636387307
 C        -8.3517760493        3.3994059485       -4.6695373431
 O        -7.9615663738        4.2327886852       -3.8714664057
 C        -9.4155914259        3.8342601017       -5.8435577825
 C        -8.6870712591        3.7713472562       -7.2157855266
 O        -9.4367277477        3.2809530049       -8.0872869928
 C        -7.2253651284        4.2789391888       -7.1916938633
 C        -6.6799228366        4.6735643584       -8.6936138484
 C        -5.9798563311        3.3362523505       -9.3345370061
 O        -5.5368614784        2.4299814430       -8.6333218128
 C        -5.9041404062        3.1902729109      -10.9020753990
 C        -7.3953061939        3.2723818493      -11.5535755399
 O        -8.0156562736        4.2905231612      -11.4029416597
 C        -8.0300596213        2.0960173486      -12.3628062392
 C        -5.2103383292        4.3947621718      -11.6579914363
 C        -5.1107326785        1.9587608617      -11.3198753346
 C       -10.6268694789        2.7544938841       -5.8173314006
 C        -9.9115690346        5.1786476332       -5.4326868347
 C        -7.5919126195       -0.6847386753       -0.7579387773
 C       -10.1319210629        0.3224822474       -0.8529635398
 C       -12.7605364797        3.2428286495        1.0426315055
 C       -11.9462520742        5.5567097189        1.1082176395
 C       -12.9291429821        0.4566572846        6.4362679611
 C       -15.1086692293        1.8055604152        7.1102673372
 C       -10.0362402237        5.5671863563       10.6029250739
 C       -10.0337196079        6.9966964083        8.3939008585
 H        -7.1270349535        5.5778053858        8.9919856115
 H        -6.9449544580        4.0300651958        8.2932459154
 H        -7.6677315678        4.0522779682        9.8975890006
 H       -12.7044429683        4.8949854898       10.2814553116
 H       -11.4535429703        3.5261782350       10.1755183210
 H       -14.2469171067        3.5413587265        8.8170135295
 H       -13.4206007862        2.2819122860        9.6067654344
 H       -14.4197563103        4.5921701322        5.6506067668
 H       -15.5367020020        3.4471643694        4.8431795913
 H       -14.6200913972        5.2197899307        3.0534537500
 H       -14.4790187634        3.5128753535        2.8324367865
 H        -9.0748512562        3.9441541648        0.5423576525
 H       -10.3587969167        2.9029089869        0.0227089467
 H        -9.4445840542        1.1452983582        1.5642714030
 H        -7.9857843633        1.9934319920        1.9803580758
 H        -6.5118696034        0.8783772696       -3.1981167251
 H        -6.9732799259        2.4892831307       -2.5889590259
 H        -8.3015710109        1.2170983275       -5.1296095154
 H        -6.7253271252        1.9323651314       -5.2291226926
 H        -6.6077338910        3.5388474618       -6.7541664625
 H        -7.1465566016        5.2215839857       -6.5497984852
 H        -6.2066558394        5.6404384626       -8.5168990006
 H        -7.4665943683        5.1633376009       -9.2736948842
 H        -7.3402140142        1.2408279828      -12.6526275195
 H        -8.2709346194        2.4594624846      -13.3367067416
 H        -8.9157765766        1.6495627188      -11.8893170981
 H        -4.1208660171        4.4653965808      -11.7220529503
 H        -5.5806153729        5.2312786630      -11.1320083460
 H        -5.7105984757        4.3352997848      -12.5928704179
 H        -4.6170537983        1.6138675009      -10.4124310055
 H        -4.3176142089        2.1898345656      -11.9871413580
 H        -5.8599926632        1.2175989639      -11.5714839286
 H       -11.2395634459        3.0260886948       -4.9395077998
 H       -10.2504289138        1.6453642227       -5.8674286095
 H       -11.3470535935        2.9141948689       -6.6177044872
 H       -10.7558771016        5.3926161297       -5.9539206633
 H        -9.2214789881        5.9585586503       -5.8858426534
 H        -9.9367334114        5.3163982244       -4.3279588530
 H        -6.9906126659       -0.5809592507        0.1173601072
 H        -6.9405052784       -0.8340249610       -1.6607828314
 H        -8.1917157918       -1.6346899498       -0.7485450821
 H       -10.5123140963       -0.2688880671       -1.5731955414
 H       -10.6286221700        1.2036137712       -0.8238943695
 H       -10.2744905403       -0.2652174263        0.0665035955
 H       -12.4453353844        3.1507758910       -0.0330738448
 H       -13.7506450280        3.5687890458        0.8431601535
 H       -12.9479788818        2.2888087785        1.5803748039
 H       -12.2209200897        6.4801066657        1.6159656755
 H       -12.5693338399        5.2897918297        0.2497435530
 H       -10.9557994577        5.8848229698        0.6768273670
 H       -12.6143316266        0.1621292575        7.4213390125
 H       -12.1333330236        0.6347489177        5.7211961365
 H       -13.7130685793       -0.3776624974        6.1504398632
 H       -15.1737976133        1.1282205966        8.0239167297
 H       -15.7215002811        1.4105157775        6.3327379329
 H       -15.3833448342        2.7416464956        7.4306670257
 H        -9.9929597279        4.5184196625       10.9565389412
 H       -10.9513610378        6.0425900483       10.9701969865
 H        -9.2604056199        6.1984204001       11.1056238317
 H       -10.6069399003        7.6822541112        8.9846458248
 H       -10.3088537182        7.0113280846        7.3360624126
 H        -8.9050434087        7.1801431470        8.3956328400
 Na      -10.5550336576        4.1017930071        5.7572116870
