117

 C        -7.8490085678        4.3169141533        8.9375970662
 C        -8.9096429751        5.0317475184        8.1550451593
 O        -8.8464962434        4.9865188007        6.9855800849
 C       -10.1036730040        5.8308484186        9.0707027090
 C       -11.5489626877        5.1087208562        8.6148452222
 O       -12.1021415055        5.1615981687        7.5245633111
 C       -12.1738445008        4.1125940233        9.6702455540
 C       -13.1528975634        3.1786797579        9.0715311994
 C       -12.5899525618        2.5924989626        7.7207454817
 O       -11.4199507787        2.3220098792        7.6897917253
 C       -13.6524835693        2.0118734056        6.6097737824
 C       -13.5695350611        2.7766308899        5.2657578650
 O       -12.9266800992        2.2949902209        4.3665162272
 C       -14.3995603275        4.1871729381        5.1172460938
 C       -14.2544214483        4.5014708992        3.5991022901
 C       -12.7318246946        4.6379818328        3.2686509623
 O       -12.0625562243        5.1821260922        4.1107538581
 C       -11.9907455857        4.2549235628        1.9329198656
 C       -10.5569518100        3.6623298768        2.2810764815
 O       -10.0574083828        3.6764052093        3.4118139757
 C        -9.6748878034        3.2582764801        0.9886049387
 C        -8.7206094990        2.1179243271        1.1803386957
 C        -8.1582854669        1.8137311999       -0.3327092495
 O        -7.0863422186        2.3795106485       -0.5903424569
 C        -8.7876044926        0.5608207797       -1.0841786869
 C        -8.4998571142        0.7890857800       -2.6229542428
 O        -9.4714610856        0.7142217415       -3.3562436651
 C        -7.0980030423        1.1417532318       -3.3979370919
 C        -7.4837701246        1.9045331250       -4.7711815285
 C        -8.1776521465        3.2456063975       -4.6007744719
 O        -7.9252060390        3.9140325853       -3.6213347439
 C        -9.2322059322        3.6922460579       -5.7621202774
 C        -8.5912131664        3.7136978347       -7.1758310822
 O        -9.2128466667        3.2880090441       -8.1070079779
 C        -7.0480678902        4.3658946674       -7.2332322684
 C        -6.3545379112        4.3722032132       -8.7241978917
 C        -6.0969487366        3.0528192764       -9.4768950884
 O        -5.9008590009        1.9752662673       -8.9775878605
 C        -5.9299276954        3.1823439743      -11.0408793280
 C        -7.4610712529        3.2328858854      -11.6874225758
 O        -8.0350156038        4.1889585314      -11.2754882953
 C        -8.0292242009        2.2554978974      -12.6797221599
 C        -5.0451452199        4.3495955860      -11.6067702861
 C        -5.2800877367        1.7437762781      -11.4638180142
 C       -10.4551967850        2.7037092366       -5.6106540114
 C        -9.7720789361        5.0705582380       -5.2818545741
 C        -8.0465538509       -0.6983251503       -0.5196097129
 C       -10.3090340591        0.3394582987       -0.7724225445
 C       -12.8321299838        3.2000491290        1.2473721757
 C       -11.7299288497        5.6300776905        1.0523271030
 C       -13.1649834999        0.5994074046        6.3008077083
 C       -15.1126528069        2.0147678645        7.1113148231
 C        -9.6694989762        5.6974564191       10.4994043292
 C       -10.2509213151        7.2895579900        8.8133619568
 H        -7.2650504974        4.8345331430        9.6822579313
 H        -7.1131150750        3.9979184136        8.2034008551
 H        -8.3327972785        3.3560912789        9.3392294232
 H       -12.6883981335        4.7684761081       10.3215945958
 H       -11.3668971354        3.6366969027       10.2077473188
 H       -14.1172452700        3.6216548346        9.0132886912
 H       -13.4150516891        2.3869303027        9.7122069430
 H       -13.9446969453        4.8897999357        5.8219712176
 H       -15.4477104070        4.0344064528        5.4535053508
 H       -14.8480876905        5.4146708089        3.2303430487
 H       -14.7237618857        3.6398882388        3.0663970578
 H        -9.0192086171        4.1381964724        0.7084600602
 H       -10.3327390258        3.1264887475        0.0373394052
 H        -9.1708183431        1.2439085081        1.6551694940
 H        -7.7544896500        2.3714623617        1.6890487491
 H        -6.5058446441        0.3414399853       -3.4819323885
 H        -6.6192788008        1.7006767288       -2.6455110771
 H        -7.8315127095        1.1852657842       -5.5352992296
 H        -6.5706016410        2.2738129218       -5.1977148317
 H        -6.4759902753        3.5742553940       -6.6187604205
 H        -7.0137876721        5.3135025208       -6.7179803319
 H        -5.6629389163        5.2488423859       -8.7824608128
 H        -7.1802135434        4.8603297371       -9.2957701900
 H        -7.3477082422        1.6490848881      -13.2891262890
 H        -8.6584947989        2.6648749643      -13.5490468182
 H        -8.6404466371        1.6033372256      -12.0261389882
 H        -4.3438103695        4.4268830956      -10.7657639745
 H        -5.6545088261        5.3243305723      -11.7564503276
 H        -4.4690138510        4.0890889789      -12.5554824589
 H        -4.2776287217        1.6552984610      -11.0661658390
 H        -5.1057240238        1.9501234839      -12.5219118429
 H        -6.0118140467        0.9897266365      -11.2760192362
 H       -10.9722247075        2.9016793759       -4.7245399808
 H       -10.1459735355        1.6974239348       -5.7466265204
 H       -11.2074584342        2.9098047228       -6.3647009212
 H       -10.7206235852        5.3621364629       -5.8926537997
 H        -9.1398217615        5.9290485421       -5.3434730701
 H       -10.0832508529        4.8487077852       -4.2652408948
 H        -8.8274447385       -1.1492799648        0.1736123186
 H        -7.1649652773       -0.4904505606        0.0153258709
 H        -7.7955395630       -1.4335169068       -1.1610187059
 H       -10.5795980583       -0.7712654601       -0.8240929726
 H       -11.0450674858        1.0341856500       -1.3266820296
 H       -10.3994787430        0.5186696615        0.2759076373
 H       -12.2865134982        2.9390539890        0.3985825647
 H       -13.7673604882        3.5006962190        0.7829352311
 H       -12.9270354526        2.4031612127        1.9015968787
 H       -11.8119038694        6.4744861708        1.7329427839
 H       -12.2216699374        5.7307073283        0.0910344396
 H       -10.6701091831        5.7505134048        0.9822496329
 H       -13.6210126080       -0.1858324745        7.0126041952
 H       -12.0895890957        0.6688775913        6.2137869885
 H       -13.5879000841        0.4157873886        5.3792730032
 H       -15.2476371073        1.3824213795        7.9461870131
 H       -15.7025311728        1.5637752753        6.2399944714
 H       -15.5027333397        3.0757803941        7.2629702629
 H        -9.4116768862        4.6731055281       10.6691591767
 H       -10.2771181811        6.0005559712       11.3394221345
 H        -8.8540959569        6.4372981726       10.5348337221
 H       -10.0202505275        7.8027887552        9.8265205581
 H       -11.3172901629        7.5409670016        8.6219838800
 H        -9.7104598903        7.6091467007        7.9930651279
 Na      -10.6331944591        4.2743660647        5.4397015209
