117

 C        -7.8772831212        4.2029734043        8.9426972040
 C        -8.9865348469        5.0157161245        8.1601529297
 O        -8.9184381545        5.2034130933        6.8908643657
 C       -10.0709283583        5.7773954655        9.0084761330
 C       -11.4898767878        5.0261834328        8.7510950316
 O       -12.0114728957        5.3415204158        7.6683926584
 C       -12.1449048812        4.1265546869        9.7273785154
 C       -13.1836640519        3.2959065769        8.9869483995
 C       -12.6238264656        2.4082688982        7.7403539488
 O       -11.4414919105        2.3214026585        7.6387730378
 C       -13.6799472276        1.9401927474        6.6120585162
 C       -13.5570353102        2.8151751345        5.3541392053
 O       -12.9180793527        2.4883421456        4.3407277894
 C       -14.2602310054        4.1928060034        5.1354883901
 C       -14.2814785511        4.6873988546        3.6627306097
 C       -12.7932823986        4.7869482425        3.2628765008
 O       -12.1398185066        5.4538981146        4.1204439995
 C       -11.9509515808        4.2076830172        1.9836192557
 C       -10.5347181592        3.7434120413        2.2569491234
 O        -9.8600328568        3.6214158607        3.2847168737
 C        -9.6356654306        3.4716873514        0.8848486783
 C        -8.7130739095        2.2264767938        1.1333002251
 C        -8.1155637530        1.6983087581       -0.2361777637
 O        -7.2405438715        2.2376324593       -0.7823106895
 C        -8.8311058684        0.5848682688       -0.9553151153
 C        -8.6131630703        0.7658379437       -2.7092943789
 O        -9.5947627837        0.7567046310       -3.3713590860
 C        -7.2174444900        1.0000878113       -3.4142901607
 C        -7.1536827475        1.7334330913       -4.7123846633
 C        -8.0167393296        3.1597759229       -4.5754207617
 O        -8.0415425237        3.8202955263       -3.5804033935
 C        -9.0326026096        3.6038997231       -5.6554372756
 C        -8.3604745094        3.7188780485       -7.1215309112
 O        -9.0413529665        3.3343774433       -8.0805140609
 C        -7.0093139408        4.2041995089       -7.3182008665
 C        -6.5924816313        4.2226021015       -8.8454832773
 C        -6.1322847064        2.9009342628       -9.5100745192
 O        -6.1611559526        1.8325333235       -8.9118372768
 C        -5.8635220865        3.0385362182      -11.0770278280
 C        -7.4225568207        3.2589550008      -11.7011529538
 O        -8.1032874310        4.1687710578      -11.2901827249
 C        -8.0366883143        2.4258548517      -12.7312297057
 C        -5.0777506393        4.2586718189      -11.3639140034
 C        -5.3171096001        1.6927559433      -11.6543763462
 C       -10.2532752440        2.6428384163       -5.6271474558
 C        -9.5574302146        5.0765567301       -5.3265795921
 C        -8.0065814173       -0.7174112380       -0.5055657533
 C       -10.3217931107        0.5574268764       -0.8116113420
 C       -12.9041143265        3.2197168125        1.1862414499
 C       -11.7359597666        5.4939085695        1.1262225148
 C       -13.3192426003        0.4261114817        6.2975843391
 C       -15.1638803567        2.0883863572        7.2510561622
 C        -9.5452803644        5.7618147796       10.5304656824
 C       -10.3872056581        7.3899083729        8.7565361927
 H        -7.4568900075        4.5755679642        9.8358015184
 H        -7.0922135124        4.0285230889        8.2668380331
 H        -8.3075325849        3.2078715604        9.0894905216
 H       -12.4924400545        4.7451246048       10.5383596150
 H       -11.3101835289        3.5019898141       10.1188168937
 H       -14.1135760025        3.8125283479        8.8318431376
 H       -13.5864014683        2.6013521701        9.7132794432
 H       -13.5926849745        4.9662968141        5.6692795427
 H       -15.2139806079        4.3323078847        5.6245073032
 H       -14.7780828975        5.6200669059        3.8056907394
 H       -14.8971011262        4.1478479767        2.9856932387
 H        -9.0529835973        4.3180255334        0.5319355531
 H       -10.3553171920        3.1441869152       -0.0709989627
 H        -9.3482380959        1.4139846230        1.6098738725
 H        -7.8263748923        2.4913824695        1.7942531377
 H        -6.9716977229       -0.0911714898       -3.6474634912
 H        -6.5598820816        1.1718269329       -2.6187049010
 H        -7.6321259139        1.0851192531       -5.4723650531
 H        -6.1178309120        1.7856085635       -5.0366861091
 H        -6.2451185915        3.6100047426       -6.7733786432
 H        -7.1127341064        5.1792518819       -6.9011630578
 H        -5.8142117069        4.9785538495       -8.9055273656
 H        -7.3936591653        4.7136988816       -9.3312561589
 H        -7.2812089508        2.2445555248      -13.5034021784
 H        -8.7946167811        2.8385864291      -13.3273198502
 H        -8.4032503903        1.5091064689      -12.2646987728
 H        -4.3959917480        4.4075361911      -10.4811711671
 H        -5.7511267400        5.0944773312      -11.6166295335
 H        -4.4315449124        4.0707406809      -12.2747102769
 H        -4.2598046550        1.8362539623      -11.8787083821
 H        -5.7651037412        1.5266132158      -12.6485949956
 H        -5.6582325169        0.9658723767      -10.9186778709
 H       -10.7440829531        2.5558332084       -4.7246870706
 H        -9.7833414837        1.6543026728       -5.9565990170
 H       -10.9832201744        2.8850660185       -6.3472603705
 H       -10.2392755072        5.3099339884       -6.0906575984
 H        -8.8530419881        5.9454896185       -5.2308055198
 H       -10.1915012437        4.9580314733       -4.4444099565
 H        -8.7942652733       -1.4483526101       -0.2790709867
 H        -7.3557952934       -0.5823909594        0.3891211326
 H        -7.3269662166       -1.1980986148       -1.2062518697
 H       -10.7113702886       -0.4761661696       -0.8272945632
 H       -10.8080830922        1.2247309177       -1.5614089254
 H       -10.5838485830        0.9571131144        0.2635239495
 H       -12.2923729723        2.9568331052        0.2321344416
 H       -13.8170119001        3.5971721598        0.7749812962
 H       -12.9878656394        2.2972682256        1.8408698399
 H       -11.8327536596        6.3522587984        1.7813803828
 H       -12.4072698939        5.5234682447        0.3256306281
 H       -10.6746601820        5.6394689850        0.8683917914
 H       -13.9513733226       -0.1740940341        6.9022073946
 H       -12.3330520824        0.2433623694        6.4226023393
 H       -13.6919067265        0.3039278808        5.2886593739
 H       -15.1821293732        1.4608108297        8.2069951138
 H       -15.8687051839        1.5914114553        6.5318871213
 H       -15.4865518813        3.0769918070        7.3075179802
 H        -9.6856456976        4.8146486272       10.9513335199
 H       -10.1995575078        6.3708579640       11.1989063425
 H        -8.5591191676        6.3215788973       10.6333647254
 H        -9.6743034357        7.7626164803        9.4973170334
 H       -11.3620931188        7.6606865393        9.1688005599
 H       -10.2515772759        7.7743325984        7.7475401852
 Na      -10.7322712963        4.3119152598        5.4968603421
