117

 C        -8.0452074150        4.1252769651        8.4642946317
 C        -9.1636916016        5.1545439306        8.0748848919
 O        -9.1846733664        5.4217559787        6.8896949747
 C       -10.1682365334        5.8220802184        8.9996533563
 C       -11.4870618218        5.1177290589        8.6915093313
 O       -11.9668462443        5.2366283063        7.5359839944
 C       -11.8538235963        3.9203272598        9.5816689784
 C       -13.0386886949        3.2306095630        8.9998516437
 C       -12.7699921636        2.5227752051        7.6243273548
 O       -11.6285177079        2.5819733526        7.2043023165
 C       -13.8737095680        2.0486833010        6.7376585685
 C       -13.5508408575        2.9075545250        5.4449038799
 O       -12.4848618178        2.5936130139        4.9757166901
 C       -14.2872649325        4.2380135243        5.1263213268
 C       -13.8826807432        4.8448682309        3.7282199166
 C       -12.4167851796        5.0678730569        3.4515081838
 O       -11.6891713810        5.7998130021        4.1039108289
 C       -12.0266778089        4.6082224385        1.9888433868
 C       -10.6109058853        4.0683216865        2.2157053494
 O       -10.1619478341        3.6790195746        3.3374858087
 C        -9.7630474857        3.6473341992        1.0053526160
 C        -8.7435106004        2.3622191681        1.0767425201
 C        -8.1999147099        1.8598142182       -0.3756362909
 O        -7.2186821541        2.2997517710       -0.8395916133
 C        -8.9586053981        0.7190167329       -1.0922807976
 C        -8.8473507647        0.8183877154       -2.6871614258
 O        -9.7835502408        0.8018238402       -3.4440157835
 C        -7.4590454574        0.6511287617       -3.2354160648
 C        -7.1482936802        1.3820083473       -4.5288215195
 C        -7.8662028448        2.7616376342       -4.4266404956
 O        -7.8185313554        3.3725918680       -3.4033906021
 C        -8.6384039326        3.4005817908       -5.5252195071
 C        -8.0485371829        3.2817739471       -6.9649174855
 O        -8.8201716759        3.1017051208       -7.9116123196
 C        -6.5030147526        3.7048501733       -7.1104103618
 C        -6.2739589110        4.0048793835       -8.5998983149
 C        -6.4983532564        2.7704742498       -9.5526627989
 O        -6.6822458228        1.6635023695       -9.1157685378
 C        -6.0059612746        2.8547869233      -11.1995351869
 C        -7.5037113539        3.2887704874      -11.9940638976
 O        -7.9803915694        4.3441245214      -11.6077848275
 C        -8.0412081080        2.6032881753      -13.1483538452
 C        -5.0605265658        4.0288289826      -11.4779581583
 C        -5.5237307904        1.3942949599      -11.5050933002
 C       -10.0631140125        2.5286402083       -5.5882621682
 C        -8.9831059205        4.8483848887       -5.2742436317
 C        -8.2565451182       -0.6234941813       -0.7545604305
 C       -10.5016534601        0.6256455044       -0.6818320305
 C       -12.7604664543        3.3536972024        1.6149734420
 C       -12.1071162463        5.7744603259        0.9634562656
 C       -13.5426962729        0.5394829529        6.3658033719
 C       -15.3400639825        2.2346837287        7.2210318663
 C        -9.7655398205        5.8908622786       10.5826540789
 C        -9.9479341010        7.4593661707        8.7040070212
 H        -7.2902005031        4.5061180542        9.1664667366
 H        -7.6230965064        3.7369621025        7.5204014548
 H        -8.5947328543        3.1566306269        8.8804381357
 H       -11.9685686574        4.1551418907       10.6013179963
 H       -10.9206235661        3.3212743205        9.5225155878
 H       -13.8688103146        3.9267937160        8.8684098726
 H       -13.4903780709        2.7069612811        9.8248861039
 H       -13.8785806189        4.8992700021        5.8894442050
 H       -15.3492214361        4.2391625321        5.3373285631
 H       -14.4185467511        5.8942647651        3.6536015389
 H       -14.4327041860        4.3175867235        2.9025615994
 H        -9.3459595399        4.5595588445        0.6933997858
 H       -10.6274447642        3.3363050025        0.1365599038
 H        -9.2534764093        1.5547148014        1.5074625251
 H        -7.9852163865        2.8014522368        1.7154135262
 H        -7.6777850619       -0.3454203656       -3.4934458528
 H        -6.7646077941        0.5520253410       -2.5047921162
 H        -7.6671490456        0.9320481600       -5.4178152498
 H        -6.0830677785        1.2848513797       -4.6512978611
 H        -5.8188221234        2.7757390924       -6.8882089731
 H        -6.4158871292        4.4782320823       -6.3791670995
 H        -5.3570588116        4.6198972821       -8.8154809791
 H        -7.1460729771        4.7224418015       -8.6387845562
 H        -8.0550164898        3.2416458912      -14.0684710451
 H        -9.0554523657        2.1631391580      -13.0824807282
 H        -7.4516872222        1.6666600063      -13.2762110824
 H        -4.1337528332        3.7339834661      -11.0350379632
 H        -5.4526185840        5.0222614184      -11.2872150621
 H        -4.8213915546        4.1271265492      -12.5171329664
 H        -5.6929464315        1.1550521655      -12.5520055613
 H        -6.3066194516        1.0217321453      -10.8657106951
 H        -4.5705152931        1.1301140248      -11.0915603476
 H       -10.5826454139        2.5989820079       -4.7113805372
 H        -9.7739093244        1.4185480057       -5.6407817791
 H       -10.7061535338        2.7617027063       -6.4520923734
 H        -9.6486298114        5.2732620333       -6.0575184820
 H        -8.0744111858        5.4284156904       -5.1140084842
 H        -9.6051903383        4.9040007028       -4.3920507692
 H        -7.9575068231       -1.1701509722       -1.6763598645
 H        -8.7464169018       -1.2825723219       -0.0710590409
 H        -7.3588373685       -0.4099222291       -0.3279161058
 H       -11.0420068189        0.2091359581       -1.4855879237
 H       -10.9547885535        1.5725332482       -0.5844618487
 H       -10.6969145430        0.0595506676        0.2320712548
 H       -12.4105606465        2.8430883921        0.7432266933
 H       -13.6681645723        3.8184539822        1.4384206491
 H       -12.8565036378        2.6556997073        2.3931703192
 H       -11.1385157556        6.3553736551        0.9468951080
 H       -12.8422172881        6.4291914074        1.4446743943
 H       -12.3655369328        5.4153789432       -0.0524032881
 H       -13.3257247172        0.0757470673        7.3905226127
 H       -12.5742172662        0.5128132684        5.9283846071
 H       -14.4221155283        0.0852101241        5.7829372549
 H       -15.4588927316        1.5178444325        8.0519071098
 H       -16.1468347966        2.0222190810        6.4771590511
 H       -15.5686993335        3.2309563333        7.5023020529
 H        -9.5358433207        4.9773135153       11.0658136872
 H       -10.5884506076        6.2150738363       11.1882939639
 H        -8.9266431366        6.6248295202       10.7231667122
 H        -8.8817248942        7.6147599654        8.3074072743
 H       -10.2571403124        7.7969994282        9.7111854074
 H       -10.6139475394        7.8531321054        7.9751873760
 Na      -10.9133811768        4.3476625279        5.6168891219
