117

 C        -8.1259100258        4.1677163190        8.5852120888
 C        -9.0256483966        5.2297369510        7.9073806312
 O        -9.1518263310        5.3385170154        6.6592111501
 C       -10.0109452906        5.9520073163        8.9718076682
 C       -11.3952168889        5.1231854366        8.5533717938
 O       -12.1287152290        5.4721227404        7.6384237568
 C       -11.8834534494        3.9824337566        9.5774892882
 C       -13.0615712986        3.0191279280        9.1763702139
 C       -12.8228821725        2.5991396910        7.6824587580
 O       -11.6619782030        2.6205677720        7.3763859958
 C       -13.8811458852        2.0823786196        6.6731079137
 C       -13.4465545631        2.9683101692        5.4091748717
 O       -12.3924499145        2.7282549640        4.7890392241
 C       -14.1891791316        4.3157220942        5.1235835075
 C       -13.9884671406        5.1376837910        3.8701903807
 C       -12.5217648481        5.2633429852        3.3973136798
 O       -11.7353560146        5.7894288453        4.2093381967
 C       -11.9958467300        4.6545679314        2.0422600869
 C       -10.4617555536        3.9950256335        2.2260776313
 O       -10.0390582506        3.6967334141        3.2811254110
 C        -9.6505329616        3.7756596481        0.8151804985
 C        -8.8917137706        2.5049232802        1.0452690627
 C        -8.4422030361        1.8798795735       -0.2233674440
 O        -7.4007701549        2.2902899912       -0.6461098971
 C        -9.0216348526        0.6928860619       -1.0470191759
 C        -8.8798250441        0.6874832702       -2.6460433296
 O        -9.8859853330        0.8495371238       -3.2826187695
 C        -7.3585628775        0.5094074297       -3.3350694673
 C        -7.2263670261        1.2428027631       -4.6489285833
 C        -7.8729540884        2.6953730832       -4.4283293036
 O        -7.6354092641        3.1850432976       -3.3506765302
 C        -8.6978916796        3.4066786485       -5.4837668626
 C        -7.9965638540        3.2172697581       -6.9464828873
 O        -8.5754417950        2.9276311300       -7.9656816602
 C        -6.5027051868        3.4290388766       -7.1191388292
 C        -6.0547408370        3.8477829829       -8.5721114405
 C        -6.3160953975        2.7943961626       -9.5666100759
 O        -6.8774078799        1.7552663585       -9.1817847028
 C        -6.1777067997        2.8508948136      -11.1282798687
 C        -7.3687473267        3.3835994517      -12.0719628463
 O        -7.9046482980        4.3976971489      -11.6999017970
 C        -7.9412941138        2.5187042959      -13.2467312725
 C        -5.0527475609        3.8433178957      -11.6993074462
 C        -5.7498600646        1.3615784748      -11.6087973404
 C       -10.1535214361        2.6881139453       -5.4524074803
 C        -8.9847955393        4.7803914107       -5.1153090308
 C        -8.2666362103       -0.6356758746       -0.5843837002
 C       -10.6258616697        0.7453014981       -0.6798853218
 C       -12.8557910984        3.3565531202        1.5705288028
 C       -12.0431471605        5.6901620413        0.9663244944
 C       -13.6571286874        0.5467012998        6.4603025109
 C       -15.3461051283        2.3588863430        7.2026497614
 C        -9.6755809390        5.6845596049       10.4646317674
 C       -10.0698561548        7.5029839670        8.7207455687
 H        -7.4062133373        4.6518236518        9.3092876425
 H        -7.6940458748        3.3938773256        7.9238486955
 H        -8.8374495002        3.5917832050        9.1355436489
 H       -12.0504135522        4.4698033280       10.4993182624
 H       -10.9944429253        3.4070704012        9.7610316655
 H       -14.0401484066        3.3306719780        9.4334906569
 H       -12.9772251162        2.1926621819        9.8670174653
 H       -14.1381839963        4.9387952929        6.0812537661
 H       -15.2207066964        4.0400747314        5.0860946431
 H       -14.5204927005        6.0994491072        3.9997271915
 H       -14.6311956145        4.6244041801        3.1163978121
 H        -9.0472206438        4.7515643637        0.7319982654
 H       -10.2728368601        3.6761979792       -0.0929800873
 H        -9.4746082222        1.8498768713        1.7147188672
 H        -8.0764098402        2.9737755710        1.6162862268
 H        -7.1113377712       -0.5218357794       -3.3530688142
 H        -6.7750472808        0.9383158986       -2.5819064573
 H        -7.5771845122        0.8026560554       -5.5730192611
 H        -6.1197979264        1.3134108094       -4.7016387744
 H        -5.9376273421        2.4772270969       -6.9255439798
 H        -6.2148700204        4.2005609040       -6.3805380118
 H        -4.9773780199        3.9467636267       -8.4114038109
 H        -6.4276936351        4.8533439487       -8.7139261286
 H        -8.3326766347        3.2531363395      -14.0370716387
 H        -8.7789396284        1.9375656190      -12.9103253044
 H        -7.3531538489        1.6731622009      -13.7335215184
 H        -4.1637536294        3.5080154662      -11.0713185724
 H        -5.2961520443        4.9057050018      -11.6685203763
 H        -4.6767389670        3.7365222617      -12.7443928474
 H        -6.2512710042        0.9974448992      -12.4865128783
 H        -5.8273175414        0.8202549281      -10.7115096545
 H        -4.6807766151        1.4492563548      -11.8720035738
 H       -10.6293822601        2.9272325779       -4.4703385749
 H       -10.1357454530        1.6108085507       -5.3682742312
 H       -10.7102825175        2.9382277247       -6.2653969279
 H        -9.7229478372        5.2395688065       -5.6331644808
 H        -7.9470314855        5.2323214797       -5.2437150109
 H        -9.2762424000        4.9035640874       -4.0588678073
 H        -7.9853757685       -1.1276695565       -1.4130527053
 H        -8.6373556148       -1.3295669765        0.1110069404
 H        -7.2439473183       -0.2584849020       -0.2438913390
 H       -11.3248014472        0.4434931004       -1.4480971581
 H       -11.0221444021        1.7350452542       -0.4467191839
 H       -10.7408424253        0.0810808822        0.2684889363
 H       -12.1873129448        2.7931514184        0.9388034013
 H       -13.7827371246        3.6477218886        1.1848920183
 H       -12.9331534561        2.6892117867        2.3971715505
 H       -11.1413284129        5.9197901669        0.3944493460
 H       -12.3710843204        6.6050976260        1.4118779955
 H       -12.8217031920        5.2358750146        0.3112090840
 H       -13.2470409306        0.2537104255        7.3007285615
 H       -12.8791404125        0.3030762942        5.7341667679
 H       -14.6628250317        0.1294200166        6.2529604475
 H       -15.4588142970        1.6068568989        8.0992125117
 H       -16.2102525013        2.1935861800        6.5276944114
 H       -15.5011739751        3.3605357764        7.5434059826
 H        -9.5565388795        4.6092010490       10.5048992216
 H       -10.5493434798        5.7675965768       11.1046895371
 H        -8.8176916497        6.1437002095       11.0082618553
 H        -9.1084200364        7.7440889494        8.6025396255
 H       -10.6999631847        7.9751478119        9.4579692378
 H       -10.5064383575        7.6164239262        7.6470760281
 Na      -10.8733548765        4.3030333746        5.5066003211
