117

 C        -7.8452441052        4.1455789341        8.2869771515
 C        -9.0633307658        5.0068029419        7.8562732776
 O        -9.2853554572        5.1887086321        6.6620018385
 C       -10.0586185199        5.8666125425        8.8681147361
 C       -11.5296559509        5.0938975824        8.8505346087
 O       -12.3606697708        5.3757842707        7.9584626541
 C       -12.1438978344        4.0827914747        9.8498563409
 C       -13.0032783939        3.1615077396        9.0744587954
 C       -12.6081867086        2.8279298360        7.6062691056
 O       -11.4396178809        2.8240728883        7.2591535830
 C       -13.7885030379        2.5217287209        6.6286193114
 C       -13.5907584852        3.3297154532        5.3641572246
 O       -12.8795179171        2.8357809175        4.4939914346
 C       -14.2450759798        4.6619300934        5.1733996706
 C       -13.9683281075        5.1124224370        3.6977857057
 C       -12.4684163814        5.2517138180        3.5533589751
 O       -11.7198180674        5.9537894742        4.1900662597
 C       -11.9975856323        4.6599108075        2.0827981853
 C       -10.5629546500        4.2966684485        2.2368440583
 O        -9.9224487486        4.1363402682        3.3183996594
 C        -9.7581550186        3.8917143946        0.9892006903
 C        -9.2104679111        2.4099935749        1.1679822095
 C        -8.5833026004        1.8876514372       -0.1707349489
 O        -7.4982588698        2.1820828700       -0.5623652944
 C        -9.2434813479        0.5148543822       -0.8256170659
 C        -8.9697263890        0.4545738688       -2.3686409345
 O        -9.9263794295        0.8248474634       -2.9632592773
 C        -7.5811030866        0.4098600886       -3.1308922196
 C        -7.7072449964        0.9177172688       -4.5290484529
 C        -7.6304685616        2.5815478118       -4.4433149250
 O        -7.1775459818        3.1053620398       -3.4516264578
 C        -8.6096261986        3.3543487107       -5.5528094608
 C        -8.0114448782        3.1099643814       -7.0245439230
 O        -8.7805980305        2.9322909719       -7.9353631771
 C        -6.4199006619        3.2173423156       -7.2730714853
 C        -6.0719753159        3.4706241163       -8.7373231044
 C        -6.5924370196        2.4178569036       -9.6998743442
 O        -7.1149489585        1.3277002117       -9.5014063010
 C        -6.0922885334        2.6871172211      -11.2695047578
 C        -7.2317499898        3.3191284560      -12.0092424939
 O        -7.5745079235        4.4411426117      -11.6938402125
 C        -7.9744431682        2.7709459569      -13.2419689638
 C        -4.7749020764        3.6081323221      -11.4085398233
 C        -5.7716089814        1.0866434120      -11.8870129149
 C       -10.0730723165        2.9575224453       -5.4704008105
 C        -8.2406767981        4.8316376583       -5.2688918489
 C        -8.4398638729       -0.6901191337       -0.0285505185
 C       -10.7690967541        0.5125364774       -0.6296641821
 C       -12.8472403769        3.4477107831        1.4753622846
 C       -12.1892563919        5.9574216064        1.1334527890
 C       -13.5473058225        1.0054124920        6.3509797471
 C       -15.1116871618        2.8167100838        7.4038227189
 C        -9.6156280855        5.8410534222       10.2702374960
 C       -10.0823841423        7.1884899084        8.2639003045
 H        -7.3306698134        4.5180156720        9.1775775125
 H        -7.3073346600        4.0062733019        7.3477780225
 H        -8.2372494590        3.1413212765        8.5618488801
 H       -12.7522381845        4.7542686292       10.4555877716
 H       -11.3376317855        3.6674961798       10.5284874009
 H       -14.0420024942        3.5232286616        9.1575870727
 H       -13.0179084938        2.1237589838        9.5237117837
 H       -13.7293339808        5.4330420092        5.7610855011
 H       -15.2554158679        4.6298089682        5.5322770952
 H       -14.3892504708        6.1482821322        3.4768070593
 H       -14.4039933405        4.3733323392        3.0082662995
 H        -8.8116873785        4.4887506191        1.0109026767
 H       -10.1793672533        3.9060652994       -0.0814950366
 H        -9.8959850033        1.7324870571        1.5645916771
 H        -8.4362443070        2.5585846218        1.9331938186
 H        -7.1776435066       -0.6149638564       -3.1099444496
 H        -7.0363730961        0.9977658972       -2.4621865885
 H        -8.6745623748        0.6038625598       -5.0148434858
 H        -6.8456229688        0.6117366753       -5.1271554890
 H        -5.9908365619        2.1703359458       -7.0136736891
 H        -5.9060015940        3.8640741047       -6.6189052465
 H        -4.9348755990        3.4604662642       -8.6655984345
 H        -6.3207334300        4.5393207328       -9.0723786406
 H        -9.0063438186        2.5296396697      -12.9261810343
 H        -7.5409043692        1.9332416288      -13.6992246175
 H        -8.0743071998        3.5124620950      -14.0517584567
 H        -3.8571072986        3.0896305509      -11.0926498288
 H        -4.7993612183        4.6379618217      -11.0935577174
 H        -4.7218322235        3.6294380183      -12.4965210582
 H        -6.2718177234        0.3677695262      -11.2231991657
 H        -4.6800161407        0.9424193955      -11.8687020151
 H        -6.1746430800        0.9361495668      -12.8905528155
 H       -10.4871109942        2.6574772842       -4.5208679956
 H       -10.0377275159        1.8932147036       -5.9484886025
 H       -10.6521801249        3.4747393279       -6.2093166519
 H        -8.9453221341        5.4007980597       -5.7995979376
 H        -7.1920926456        5.1740153263       -5.4121231545
 H        -8.5012006065        5.0451343279       -4.2207854114
 H        -9.0560992523       -1.4927110640        0.2836077768
 H        -8.1061351820       -0.2758675598        0.9549432073
 H        -7.5324129863       -1.1246854356       -0.5165662311
 H       -11.2012119757       -0.3737953152       -0.9473956108
 H       -11.2792976229        1.2674574520       -1.1081408220
 H       -10.9594514531        0.5335174867        0.4641264469
 H       -12.4115076858        2.9763012749        0.5487710879
 H       -13.8062016425        3.8146792999        1.4384780299
 H       -12.6768100360        2.6295452668        2.1955012963
 H       -12.3374294496        5.4996102789        0.1264866217
 H       -11.1903265319        6.2912867491        0.9384037203
 H       -12.9446692196        6.6768252870        1.5385396043
 H       -13.6948418374        0.3727451670        7.2159624798
 H       -12.5056048685        0.8105627787        5.9123632048
 H       -14.2989242155        0.8247261376        5.4509150857
 H       -15.3368037569        2.1986586683        8.3178661935
 H       -15.9842454112        2.5871616130        6.7767955455
 H       -15.1775883140        3.7873217164        7.7294946144
 H        -9.2460076166        4.8836203139       10.5396859935
 H       -10.3400289235        6.2928933468       10.9511729179
 H        -8.6238857693        6.3801533804       10.4279104789
 H        -9.2934944580        7.7249763410        8.6803839363
 H       -11.1328685572        7.4524535098        8.4252719064
 H        -9.9652199145        7.1935297743        7.1041140034
 Na      -10.5686042074        4.1058400438        5.4622225035
