117

 C        -7.9877419641        4.2489020435        8.3565157843
 C        -9.1502357967        4.9677748672        7.8361958771
 O        -9.3054129398        5.0880505766        6.6386659369
 C       -10.0349125235        5.8411993238        8.8733503990
 C       -11.4124357475        5.1327302225        8.7983897623
 O       -12.1625466507        5.3658335329        7.8895124705
 C       -11.8426704149        4.0017981735        9.9562455436
 C       -12.8787559014        3.0764266809        9.3102895100
 C       -12.6643285317        3.0097839727        7.7138744889
 O       -11.5504890833        2.9748385718        7.2801005412
 C       -13.8405847229        2.6097340666        6.6672841161
 C       -13.6472828508        3.3921668224        5.3585528752
 O       -12.8691554765        2.9991474484        4.4358388170
 C       -14.1782180401        4.8282405492        5.2281957083
 C       -14.0806444045        5.2640515544        3.7371791289
 C       -12.5821028043        5.2713971288        3.3634769692
 O       -11.8381617385        5.7501194786        4.2366999663
 C       -11.9232030082        4.8158121855        2.0093996574
 C       -10.4007267288        4.3309400189        2.2224600234
 O        -9.8801510062        4.2253941754        3.2554455402
 C        -9.7374611035        3.8810765568        0.9006956995
 C        -9.1937123684        2.4527031325        1.2095993791
 C        -8.6585321458        1.6230086991        0.0266563027
 O        -7.7062707477        2.1912335018       -0.5424085736
 C        -9.3427743351        0.4191118776       -0.5596146405
 C        -9.0695213202        0.6515243641       -2.3782908249
 O       -10.0834262248        0.7546698542       -3.0529861651
 C        -7.6804245946        0.4255934841       -3.0047515635
 C        -7.6901263111        0.9543581931       -4.4496387905
 C        -7.6752045300        2.4829127247       -4.5029765358
 O        -7.0002386490        3.0172627216       -3.6559309969
 C        -8.4699060593        3.2733294563       -5.5994286711
 C        -7.9834422301        3.0886093164       -7.1220390463
 O        -8.7026668357        3.0173257630       -8.0686971136
 C        -6.4848745817        3.0455057236       -7.3245182550
 C        -6.3407596718        3.3790313150       -8.8630362276
 C        -6.4775542086        2.1812032170       -9.8609891849
 O        -7.1930166770        1.2764165149       -9.5148013382
 C        -6.0482384176        2.4204815292      -11.3257549445
 C        -7.1936435585        3.3664199363      -11.9697212318
 O        -7.3719194476        4.4727061525      -11.5213133236
 C        -8.0631033461        2.8427849259      -13.2212602300
 C        -4.8495693642        3.3385837070      -11.2250621071
 C        -5.6539039322        1.1455698228      -12.0215327184
 C        -9.9130091434        3.0453661256       -5.3497573904
 C        -8.1040325949        4.8863630435       -5.3259815490
 C        -8.4532008452       -0.7464167911       -0.0250302893
 C       -10.7818544284        0.3653445688       -0.4078995154
 C       -12.7012047939        3.5811764285        1.4352307350
 C       -12.1287449255        6.0123449038        1.1168077301
 C       -13.5713943937        1.1456809271        6.3233857907
 C       -15.2344725783        2.7116828368        7.2941408155
 C        -9.5903864461        5.8600589100       10.3297048169
 C       -10.0802467072        7.3120915287        8.1357493913
 H        -7.6451138075        4.7182850717        9.3487584317
 H        -7.3116791140        4.0743925286        7.4567168547
 H        -8.3821673472        3.3063947684        8.6675417844
 H       -12.2031429314        4.4613447559       10.8586541596
 H       -10.8978301634        3.5713027123       10.1895647359
 H       -13.8461420744        3.4869478807        9.5017314310
 H       -12.8432598242        2.0278182776        9.5986780424
 H       -13.6103480909        5.5654038877        5.8197437313
 H       -15.1810791512        4.8781472110        5.5534574361
 H       -14.4871939193        6.3054460726        3.6173706626
 H       -14.7685669229        4.5108121877        3.2045643468
 H        -8.8043141823        4.5042326323        0.4484222615
 H       -10.3238363280        3.6970895913        0.1423818452
 H        -9.9592357001        1.9270377748        1.7781533184
 H        -8.3939680596        2.5731003678        1.9259810152
 H        -7.6341598569       -0.5942255027       -2.9816383736
 H        -6.9782575143        0.8626017043       -2.3327195261
 H        -8.4321785439        0.5555407330       -5.1243128608
 H        -6.6475108721        0.8522466790       -4.8559418042
 H        -6.0514692515        2.0787829251       -6.9310120903
 H        -5.9444723130        3.8183568361       -6.7026490130
 H        -5.2790520058        3.8074876156       -8.8010577200
 H        -6.9986989754        4.2517710299       -9.1513670679
 H        -8.7622171765        2.0301696619      -12.8777701671
 H        -7.4366836564        2.4435795607      -14.0469452880
 H        -8.7140211123        3.6239316680      -13.7361927874
 H        -4.1008500358        2.9892732777      -10.4916694638
 H        -5.2167427440        4.2611222836      -10.8453046638
 H        -4.3561916390        3.5381738493      -12.1568751094
 H        -5.5758367598        0.2542470542      -11.4070900143
 H        -4.7211437461        1.4233969148      -12.4686474454
 H        -6.3890139204        0.9785971165      -12.8584134876
 H       -10.0424732584        3.0995451071       -4.1991604147
 H       -10.3986774678        2.1706640882       -5.5389351650
 H       -10.3579579549        3.7952427368       -5.9411733839
 H        -8.5393254563        5.3715626141       -6.1601633594
 H        -7.0136689153        5.1429737121       -5.2389794320
 H        -8.5891182966        5.3253195133       -4.4427404886
 H        -9.0079474140       -1.5254411177        0.3499345441
 H        -7.8929857297       -0.4602897375        0.8277047462
 H        -7.7106161288       -1.1580341029       -0.7663084103
 H       -11.2552132044       -0.4995180724       -0.8087732969
 H       -11.1640462228        1.2405727213       -0.8749884465
 H       -11.1019284538        0.4174443494        0.6139411874
 H       -12.0914262025        3.2812503070        0.6312568537
 H       -13.6628516845        3.8683501342        1.0844345074
 H       -12.5912476638        2.7381929034        2.0426734493
 H       -12.6369085251        5.6128027023        0.2335372594
 H       -11.2186014434        6.3710840399        0.6158154604
 H       -12.7239045520        6.7022202975        1.7478299451
 H       -13.9971062646        0.4333798986        7.0582268302
 H       -12.4479965186        0.9121885950        6.1526338583
 H       -14.0192680603        1.0435528637        5.3998442116
 H       -15.4442434994        2.1854472825        8.2531028438
 H       -15.9855412906        2.3118628764        6.6410775655
 H       -15.4487333834        3.7565729535        7.6282703474
 H        -9.2120542819        4.9614151204       10.8253979812
 H       -10.4055806330        6.3803511306       10.7839073539
 H        -8.7483085177        6.4243580726       10.5301446958
 H        -9.0630347638        7.6019641936        8.2676512457
 H       -10.8937541238        7.8697044476        8.6095461923
 H       -10.3355561234        7.2675079016        7.0358862476
 Na      -10.7066392200        4.0188032848        5.4204150124
