117

 C        -7.9442857691        4.1906580278        8.5630511024
 C        -9.0522458361        5.0461557764        7.8868713942
 O        -9.3564702731        5.0248452388        6.7176514439
 C       -10.0182314712        5.8580814000        8.8870221767
 C       -11.3542771115        5.1872546934        8.7147076858
 O       -12.1347862302        5.4028798896        7.8466000220
 C       -11.5247903158        4.0353224289        9.6389691951
 C       -12.7528421570        3.1057890929        9.3227306528
 C       -12.7150146782        2.9296725535        7.8274021393
 O       -11.5841927309        3.0411249279        7.3893647828
 C       -13.8667964368        2.6762325906        6.7772937364
 C       -13.5976012601        3.5838837117        5.5019630177
 O       -12.9468004968        3.0921317348        4.5837113605
 C       -14.2789074006        4.9876050487        5.2021245327
 C       -14.1539996645        5.4171339063        3.7382025729
 C       -12.6085362013        5.2695514236        3.3619099507
 O       -11.8900713141        5.6317160832        4.3166862344
 C       -11.9770123673        4.9386676461        1.9566527123
 C       -10.3611791716        4.4140213442        2.0834897818
 O        -9.8110361727        4.3168964817        3.1624105194
 C        -9.6856044243        3.8400861731        0.9579215049
 C        -9.2537309432        2.3724378834        1.3078980766
 C        -8.6668893821        1.7259201587       -0.0872039825
 O        -7.6854551692        2.2577357902       -0.5407923806
 C        -9.3949487178        0.4468464464       -0.6832927018
 C        -9.2644403388        0.5324079512       -2.1988643557
 O       -10.2229050105        0.7499561027       -2.9093200467
 C        -7.8268292139        0.4222298557       -2.8475674229
 C        -7.6902137373        0.8250723378       -4.3956415876
 C        -7.4964407578        2.4350058550       -4.5696046844
 O        -6.7864968553        3.1008630365       -3.8479056226
 C        -8.3713673131        3.3287031973       -5.6374849959
 C        -7.9809978946        2.9735214454       -7.1103449726
 O        -8.9259531983        3.1100926351       -7.8893606807
 C        -6.4926619338        2.8460621147       -7.5030677329
 C        -6.3599163343        3.2989242367       -8.9803867343
 C        -6.6485286461        2.0668874821       -9.8948689642
 O        -7.1768779548        1.0466759414       -9.5452045439
 C        -5.9953610797        2.3629241373      -11.4252624694
 C        -7.0971856736        3.3503817726      -11.9163422583
 O        -7.2294794178        4.4674162131      -11.4171996644
 C        -8.0137134276        2.8876008300      -13.0253828341
 C        -4.6502261583        3.2250584569      -11.2193860841
 C        -5.6643525440        1.1180808380      -12.2240444636
 C        -9.8770331578        3.2062121926       -5.2744817702
 C        -7.9998386588        4.8255596328       -5.4149689678
 C        -8.5614140115       -0.8466448976       -0.1855922109
 C       -10.8274159825        0.1429302027       -0.1698528636
 C       -12.7073207095        3.6380508081        1.4209779124
 C       -11.9983346423        6.1800737404        0.9388935315
 C       -13.5829127142        1.1156857254        6.3055839017
 C       -15.3697057482        2.6979383112        7.1175294099
 C        -9.4249919123        5.9694316719       10.2966313494
 C       -10.2126713175        7.3689759522        8.2213740215
 H        -7.6052584022        4.7331477963        9.4307306394
 H        -7.2232994373        3.9097289331        7.7950742233
 H        -8.4279592657        3.2962768230        9.0316905926
 H       -11.5075150446        4.2971276856       10.6928409527
 H       -10.5918384755        3.5819774494        9.4715236818
 H       -13.6885037459        3.5711662434        9.6411267676
 H       -12.5473745150        2.1261698461        9.7077674025
 H       -13.7931361332        5.7912356605        5.7600984656
 H       -15.3712952991        5.0393092868        5.4879299412
 H       -14.4263441107        6.4605526779        3.6458112589
 H       -14.8572754648        4.7735867292        3.2023056305
 H        -8.7951914424        4.2310566068        0.6322983369
 H       -10.2712775432        3.6258039219        0.0158393066
 H       -10.1507144815        1.8477500192        1.8011132577
 H        -8.5005645308        2.3722163107        2.0701330887
 H        -7.6062292229       -0.6283859202       -2.6358750913
 H        -7.1443375520        1.1046941584       -2.2095759604
 H        -8.5524700949        0.7613171867       -5.0063295937
 H        -6.7930978165        0.3697132343       -4.8160985034
 H        -6.1625830793        1.8749642188       -7.2538252202
 H        -5.9296095805        3.5107170275       -6.7307352628
 H        -5.4546582531        3.8607554447       -9.0785991523
 H        -7.1601311889        4.0471925694       -9.1634986625
 H        -8.2039144202        1.7726230696      -13.0111798060
 H        -7.5724120207        3.2150798691      -14.0602423719
 H        -8.9813323018        3.3984334434      -12.9770049851
 H        -4.1930504749        2.9635643165      -10.2488340065
 H        -4.9501326061        4.2803391876      -10.9766538041
 H        -3.9052585017        3.1881763727      -11.9871346440
 H        -5.0695748468        0.4237151312      -11.6069268400
 H        -5.1138406013        1.4437894951      -13.1074343541
 H        -6.5940194008        0.6589887169      -12.5295414681
 H        -9.9037846987        3.4215777363       -4.2405415831
 H       -10.4286050927        2.3102794999       -5.2919273588
 H       -10.4129147705        3.9171284479       -5.9144780646
 H        -8.1605087705        5.4091426040       -6.4030298464
 H        -7.0129359057        4.9200348481       -5.0668828643
 H        -8.6227719487        5.2867264757       -4.6660455339
 H        -9.4289497381       -1.5423973898        0.0691964377
 H        -8.0368411891       -0.8080278676        0.7108152524
 H        -7.9898733053       -1.3172877197       -0.8832040852
 H       -11.2749533919       -0.8052515219       -0.5906909834
 H       -11.4964278986        1.0353622955       -0.3879778553
 H       -10.8621839650        0.0171085349        0.8606025087
 H       -12.0937253440        3.5049980396        0.5797596163
 H       -13.6906135888        3.8883673659        0.9681433322
 H       -12.6103467559        2.7694315723        2.0030888169
 H       -12.6403314121        6.0387132085        0.0999486921
 H       -11.0414447979        6.3057540508        0.4091163959
 H       -12.2126505990        6.9188787126        1.6652499382
 H       -13.9802681219        0.4652707872        7.1247671788
 H       -12.5913334280        0.9798868888        6.2365095211
 H       -13.9908725353        0.8476456699        5.3823231839
 H       -15.6834156630        2.1474698100        7.9649944335
 H       -15.9062035714        2.2269470958        6.2886277896
 H       -15.7828886102        3.7209964583        7.4826793406
 H        -9.1004602890        5.1286236353       10.8927699225
 H       -10.1351713331        6.6269034746       10.7258943652
 H        -8.5120615254        6.4772564147       10.3676985589
 H        -9.1532435283        7.4682528059        7.8044477632
 H       -10.5728958579        8.0928606276        8.9632044540
 H       -10.9057571942        7.3311856479        7.5010204390
 Na      -10.9165229545        3.9437290863        5.2935195211
