117

 C       -12.7329586857        7.9835505886       -4.9657952575
 C       -11.5289740127        7.6684955081       -5.8273765924
 O       -10.8215163743        8.5561603908       -6.1982870074
 C       -11.1337204550        6.2603931929       -6.2958487156
 C       -10.1387929740        5.6650141359       -5.2041771525
 O       -10.1693076501        4.4514272005       -4.9936255615
 C        -9.2254394970        6.6995980328       -4.6168206045
 C        -7.7613603014        6.4011354833       -4.1794809919
 C        -7.6937698615        5.8259157556       -2.6861674119
 O        -8.1049700504        6.5842212480       -1.7834825896
 C        -7.0327464087        4.4358117239       -2.4914889540
 C        -6.0894104716        4.6379144331       -1.3001471068
 O        -4.8658258626        4.4139621192       -1.3409055857
 C        -6.6355537929        5.2520329558        0.0679039054
 C        -5.7266977281        4.8410380849        1.2168833168
 C        -6.4770777894        3.8080222082        2.1987675971
 O        -7.5094031027        3.2960151223        1.8163444051
 C        -5.8316451224        3.6169588801        3.7023047327
 C        -6.5157746936        4.8068838656        4.3692241420
 O        -6.2830641744        5.9354421484        3.9474610259
 C        -7.6574278637        4.5524640927        5.3254964198
 C        -9.0044838930        5.3679362670        5.1708850978
 C       -10.0131611970        4.5367202703        4.2685423265
 O        -9.9005312659        3.3227383144        4.2397628971
 C       -10.9557000506        5.3241257757        3.3093325427
 C       -12.1074351882        4.3464310609        2.8048584510
 O       -11.8078499394        3.2247477356        2.4821652428
 C       -13.5081008874        4.9079246979        2.5275402105
 C       -14.4378438494        3.7745610454        2.0848852652
 C       -13.9674982198        3.2213533913        0.7010253306
 O       -13.3236946882        3.9597242857       -0.0356137207
 C       -14.2214683324        1.7376118672        0.1520940924
 C       -12.7821233772        1.1867247835       -0.1949249472
 O       -12.2883107323        0.3088621442        0.5543119584
 C       -12.0042407996        1.6489165131       -1.3905172917
 C       -10.9462925636        0.5447732868       -1.6767107681
 C        -9.9995437270        0.5163980226       -0.4846326703
 O        -9.5508118824        1.5808756955       -0.1254891268
 C        -9.4911223945       -0.8239414059        0.2964570763
 C        -9.9503855978       -0.9111856695        1.7725607121
 O        -9.8836642668        0.1065359391        2.3902520701
 C       -10.5883244982       -2.1788915736        2.3738221752
 C        -9.8820410354       -2.0956148806       -0.6106023927
 C        -7.9475112154       -0.8080145664        0.3133286228
 C       -14.8007410871        0.7679308192        1.2205790860
 C       -15.2616249485        1.7677320371       -1.0306792035
 C       -11.6020924611        6.6265822899        3.9139423807
 C       -10.1713047341        5.6868309661        2.0559533834
 C        -6.1050953211        2.1072734562        4.0097326842
 C        -4.2636231802        3.7511361782        3.5965164457
 C        -8.1099031247        3.3805573404       -2.1577748815
 C        -6.1119672119        4.0021653331       -3.6162340346
 C       -12.4413753406        5.4267260974       -6.6579878340
 C       -10.2488343025        6.3741183471       -7.5590062412
 H       -13.0853285674        7.0188960851       -4.5952222493
 H       -13.6088127560        8.1827308027       -5.6683043490
 H       -12.7669295896        8.7596025307       -4.1882903126
 H        -9.7306351282        6.9539848431       -3.6547070378
 H        -9.3155363977        7.6130466055       -5.2489415946
 H        -7.2465610620        7.3403019542       -4.2358956995
 H        -7.2939743546        5.7212634061       -4.8782958694
 H        -7.7388578642        4.9601578508        0.1913442882
 H        -6.5497626439        6.2958154390       -0.2282493476
 H        -5.6375156879        5.6668912365        1.9655931808
 H        -4.7952220234        4.5453540238        0.8323533272
 H        -7.2815955354        4.8169458872        6.3349990620
 H        -7.7662767760        3.4193042287        5.2951422275
 H        -8.7265976571        6.2417423994        4.6387068140
 H        -9.5339930148        5.6235660448        6.1404143005
 H       -13.4824762538        5.5702241388        1.7073565213
 H       -13.9370917234        5.3451902530        3.3881037809
 H       -15.4407775816        4.2058150201        2.0128902481
 H       -14.3907267369        2.9246020943        2.7882281159
 H       -11.5306162936        2.5867108856       -1.0478362297
 H       -12.6391498864        1.9078527856       -2.2488723111
 H       -10.2922663791        0.8867131159       -2.4392676404
 H       -11.4038932241       -0.3494227691       -1.9516968404
 H       -11.3305859895       -1.9701939038        3.0893213062
 H        -9.9214269855       -2.8148858661        2.9189498905
 H       -11.1055096810       -2.8060841283        1.6063245769
 H        -9.6797282455       -1.7566168170       -1.6783579651
 H       -10.8954232532       -2.3414448841       -0.5810729917
 H        -9.3192654213       -2.9497793249       -0.2135177069
 H        -7.6734902185        0.0623078346        0.9806734510
 H        -7.6000094867       -0.7757106057       -0.7558657385
 H        -7.5464379081       -1.6264114718        0.7332996256
 H       -14.2555816017        0.6831709622        2.0688698636
 H       -14.7524561408       -0.2325716730        0.7980021453
 H       -15.8466491405        0.9767956467        1.2997037620
 H       -15.9499010977        0.9850678360       -0.7414555315
 H       -14.7907923618        1.7135736833       -2.1095039060
 H       -15.7249000529        2.7491934988       -1.0240754754
 H       -10.7912656815        7.2963006398        4.1309230458
 H       -11.9732773348        6.3357629787        4.8939920720
 H       -12.3186400289        7.0587502617        3.2992641581
 H        -9.0762121955        5.7211441985        2.1727798186
 H       -10.5983593830        6.6238869728        1.7473910511
 H       -10.2578264775        4.8492259479        1.3331457019
 H        -5.6918744291        1.8319450694        5.0409955536
 H        -5.7757740419        1.4632164415        3.2564962006
 H        -7.1017937807        1.8471672515        3.9765323008
 H        -3.8274191159        3.2516545631        2.7426424533
 H        -3.8948816411        3.4670982923        4.5599661764
 H        -3.8663825219        4.7788479441        3.4549899138
 H        -8.1145371677        2.6475472893       -2.9992753949
 H        -9.1055873159        3.8755218561       -2.1347931651
 H        -7.8064921798        2.8249525720       -1.2889812303
 H        -6.5889040497        3.5665637640       -4.4528887037
 H        -5.4080039466        3.2276263963       -3.2827022501
 H        -5.3874047105        4.7775005727       -3.8838388428
 H       -12.4031814620        4.6530902536       -7.4670546960
 H       -13.3918814688        5.9634095714       -6.7768411725
 H       -12.5923429538        4.8383965068       -5.7407181989
 H        -9.3226540292        6.9711330156       -7.4339145062
 H       -10.8914958488        6.7656026633       -8.3225582854
 H        -9.9139448688        5.3447149432       -7.8272330201
 Na       -9.4778975900        2.1822099606        2.2662954737
