117

 C        -7.8172030707        4.4617703521        8.6843940905
 C        -9.0001045619        5.0789869893        8.0597143184
 O        -9.2323682660        4.8418104629        6.8814707214
 C        -9.8156901775        5.9808382183        8.8493921001
 C       -11.2920477313        5.3529146873        8.8031703882
 O       -12.1579341465        5.8738243327        8.1886055847
 C       -11.5218877897        3.9571228057        9.6012111513
 C       -12.8261432636        3.3854482118        9.0167024704
 C       -12.6702637721        2.9428768668        7.4939140578
 O       -11.6297570259        2.5858003535        7.0407166936
 C       -13.9808412614        2.6809206025        6.6278922531
 C       -13.8398273304        3.5182845706        5.3015696211
 O       -12.9842289319        3.0712277884        4.4993007191
 C       -14.3835651451        4.8712108409        5.1025161541
 C       -14.0895758206        5.4403617542        3.6698044470
 C       -12.5706913072        5.5885850869        3.3754476567
 O       -11.8188085693        6.2848654737        4.1550870114
 C       -12.0234060593        4.9715115347        2.1066686478
 C       -10.4777220396        4.3468049978        2.2069771864
 O        -9.8539694864        4.4021512851        3.2172789567
 C        -9.8499885925        3.8384215692        0.9980738485
 C        -9.5928674607        2.3139860868        1.2561850051
 C        -8.8498523492        1.5927370590        0.1149374095
 O        -7.7861467692        2.0781934839       -0.2965643175
 C        -9.4473139159        0.3304756513       -0.5559656325
 C        -9.4406685043        0.5404998535       -2.1027397688
 O       -10.5371727220        0.7795552349       -2.6052042444
 C        -8.0621929714        0.4724175016       -2.9429967800
 C        -8.2022097024        0.9509293547       -4.4559296607
 C        -7.5358685685        2.4122027268       -4.6654992001
 O        -6.3798956985        2.6312814157       -4.3321242698
 C        -8.2799716210        3.4222404430       -5.3979812596
 C        -8.2248303768        2.9143632242       -6.9231765927
 O        -9.2581662534        2.9148782705       -7.5431731287
 C        -7.0697521235        2.1193896954       -7.5853859571
 C        -6.4962491181        2.8297100942       -8.8828631106
 C        -6.3797823844        1.7783240826      -10.1024989865
 O        -6.6133702082        0.6176892331       -9.8400113310
 C        -5.8012267136        2.1820415784      -11.5647741449
 C        -6.8044511765        3.3726700718      -12.0042416068
 O        -6.5681188152        4.4806091622      -11.5834681131
 C        -8.1384565608        3.1185026707      -12.6443734792
 C        -4.3979183547        2.7498442269      -11.5741416464
 C        -5.8750649971        0.9308915040      -12.5381936966
 C        -9.6437571750        3.6911558813       -4.8686016092
 C        -7.6765528546        4.8687672951       -5.3508445631
 C        -8.4671246069       -0.7790402508       -0.2931619216
 C       -10.9625745228       -0.1374644625       -0.1341963879
 C       -12.9406966909        4.0789440204        1.3234082692
 C       -11.7579215347        6.3690101391        1.1734805464
 C       -14.1207305541        1.1514698604        6.2268761109
 C       -15.1581359891        3.0841045425        7.5358459902
 C        -9.3366246891        6.3781877532       10.2848395761
 C        -9.9605926581        7.4333869322        8.0311938611
 H        -6.9692325753        5.2102174513        8.6869851186
 H        -7.4964318811        3.5848668343        8.0836107444
 H        -8.0346643790        4.2637330181        9.7243254202
 H       -11.6510965849        4.0837030241       10.7022786009
 H       -10.6782841038        3.2635380673        9.4900033579
 H       -13.4222771968        4.2449750530        8.7615683728
 H       -13.2421955725        2.5773668689        9.6241033157
 H       -14.0052257325        5.6276477599        5.7756390616
 H       -15.4268090935        4.8973730570        5.2145456323
 H       -14.5554394321        6.4657543112        3.7237394448
 H       -14.6728822465        4.7442130814        2.9502688116
 H        -8.8296570612        4.2084383802        0.8129389360
 H       -10.3855598727        3.9990247543        0.0781565039
 H       -10.5236038632        1.8966732963        1.6992277641
 H        -8.8495840639        2.2617862814        2.0156139243
 H        -7.5891359472       -0.4351970448       -2.8874506566
 H        -7.5125967688        1.1990968330       -2.3634634663
 H        -9.2540435618        1.1435083067       -4.6168589154
 H        -7.7544345010        0.2427626205       -5.2210307850
 H        -7.4217364580        1.1006074066       -7.8300092668
 H        -6.2697950321        1.8758135109       -6.7923287739
 H        -5.4069802168        3.0318073771       -8.8023521250
 H        -7.0566741774        3.7871246599       -9.1755986768
 H        -8.1391247269        3.2719860201      -13.7350078483
 H        -8.7778589214        3.9430778027      -12.2927605609
 H        -8.5315187423        2.1680263127      -12.3957859037
 H        -3.6301640630        2.0147636790      -11.3127177976
 H        -4.2932439508        3.3940608992      -10.7199322398
 H        -4.1658754644        3.2335481750      -12.4999995935
 H        -4.8136267855        0.7504436892      -12.7097621432
 H        -6.2944991734        1.1370817876      -13.5364914287
 H        -6.3130163777       -0.0245739189      -12.1730848950
 H        -9.4348523370        4.0229490089       -3.8003490062
 H       -10.3279504933        2.8726612582       -4.7706888084
 H       -10.1987606501        4.5338898108       -5.4064929979
 H        -8.0253275009        5.4892545303       -6.2023095267
 H        -6.6226422129        4.7288471883       -5.5740934220
 H        -7.7184729435        5.3207259752       -4.3790770131
 H        -8.2954779252       -1.5474977947       -1.1248567834
 H        -8.7755135627       -1.3582257546        0.5763650919
 H        -7.5128961322       -0.3343056463       -0.0923529412
 H       -11.1300282454       -1.0731317006       -0.6553176848
 H       -11.7496442701        0.5956829256       -0.2826826250
 H       -11.0711526028       -0.3804126031        0.8593398177
 H       -12.4143276264        3.7539701281        0.4295984332
 H       -13.8068853036        4.6604962463        0.8393298598
 H       -13.2177737153        3.2356382559        1.9598266368
 H       -12.5337897966        7.0118294920        1.5834331773
 H       -12.0791219950        6.2943996572        0.1097852957
 H       -10.7307335140        6.6824234846        1.3817043649
 H       -14.0153515489        0.4104931439        7.1569349560
 H       -13.5893753077        0.8522935565        5.3542661262
 H       -15.2002640273        0.9698419384        6.0518209433
 H       -15.1856324164        2.4247641748        8.3570680391
 H       -16.1394378703        2.9852521403        7.1585775182
 H       -15.1380308754        4.0499748264        8.1611020483
 H        -9.0701970679        5.4950544418       10.9923612018
 H       -10.0611571514        7.0488578938       10.8336114453
 H        -8.4065899100        6.8792574444       10.2682800526
 H        -9.7175679671        7.1557353172        6.9417058728
 H        -9.2133654291        8.2191851866        8.3838353149
 H       -10.9819897054        7.6560525922        8.1619773183
 Na      -10.6715722334        3.9723274575        5.3612018064
