117

 C        -7.5195048540        4.9044277089        8.8789534219
 C        -8.7346521091        4.9714664945        8.0728244840
 O        -8.9564199374        4.3894102683        7.0255046003
 C        -9.7764261902        6.0924645837        8.5694111644
 C       -11.2342325159        5.5651329059        8.6799699871
 O       -12.1759250086        6.2146276609        8.4387461141
 C       -11.4181379216        4.1367122979        9.2630990672
 C       -12.7068425979        3.2612738796        8.9563392649
 C       -12.8265393262        2.9245250176        7.4728731900
 O       -11.7757344381        2.6867948389        6.8727776256
 C       -14.0672140425        2.8874100465        6.6341327893
 C       -13.7082105774        3.5141791046        5.1935797922
 O       -12.7972002810        3.0638566103        4.5025803450
 C       -14.2954987487        4.9315177186        5.0312487082
 C       -14.0502153130        5.5719771179        3.6752427155
 C       -12.5268761328        5.7266765967        3.5444823193
 O       -11.7947419391        6.0499208256        4.4485821060
 C       -11.9610010074        5.2973246733        2.1102670097
 C       -10.7415842265        4.3645486231        2.3199919415
 O       -10.2741826997        4.1596571197        3.4066779248
 C        -9.9963411880        3.7461843515        1.0725605406
 C       -10.1791354684        2.1550744449        1.0493670360
 C        -9.0630084871        1.5325942388        0.1663414933
 O        -7.9098335642        2.0700820839        0.1217077998
 C        -9.4561969197        0.1574660457       -0.5384602083
 C        -9.3949274232        0.5239838217       -2.0099872930
 O       -10.4522009584        1.0446480574       -2.3661869236
 C        -8.2757956383        0.4081308179       -3.0378554568
 C        -8.5426605164        1.0124942104       -4.5001268302
 C        -7.5238539644        2.0928250146       -4.9644739262
 O        -6.4372526263        2.1156526609       -4.4342660254
 C        -8.0997493342        3.2704758472       -5.6313626392
 C        -8.4610868401        2.7743087491       -6.9704270535
 O        -9.5354700483        3.0721886893       -7.4334062586
 C        -7.3419805430        1.9089843568       -7.7497144762
 C        -6.9511829758        2.4725966302       -9.0576738351
 C        -6.3737294736        1.4349516574      -10.0626516752
 O        -6.1652662608        0.2686189150       -9.8631172414
 C        -5.9465691019        2.1284098942      -11.4658756940
 C        -6.6381712189        3.4289079038      -11.8716357495
 O        -6.0294610231        4.4524953095      -12.0102737046
 C        -8.1871354495        3.2570496068      -12.0626599140
 C        -4.2532529062        2.3390674265      -11.1534675541
 C        -6.1426300126        1.0198727358      -12.5214320090
 C        -9.3124545843        3.9084012916       -5.0220114156
 C        -6.8871573510        4.3277819630       -5.8150444462
 C        -8.3372928089       -0.8309258362       -0.3549641913
 C       -10.8549257755       -0.3759202620       -0.1799900296
 C       -13.0404079371        4.4951780170        1.3007425118
 C       -11.6249830717        6.5312455358        1.2375125223
 C       -14.3031044578        1.3278267853        6.4237875580
 C       -15.3007137142        3.4984686293        7.2899688746
 C        -9.5918813850        6.4155293455       10.0864888690
 C        -9.6554499638        7.4725236602        7.8583829528
 H        -6.9390081350        5.8425019969        8.8258149709
 H        -6.8831999571        4.1435733298        8.4962179274
 H        -7.8185885856        4.6709491223        9.8259419329
 H       -11.5049715145        4.3075631194       10.3490132979
 H       -10.4688065647        3.5625337478        9.1200119495
 H       -13.5295342341        3.9403021079        9.1877410204
 H       -12.4808234028        2.2527839612        9.4050341183
 H       -13.9004438397        5.6702952900        5.7987327660
 H       -15.3768942874        4.9201479676        5.1848744486
 H       -14.4317031607        6.5450302036        3.5364039488
 H       -14.5668789428        4.8675939931        3.0000206078
 H        -8.8205636409        4.0073364975        1.1371350982
 H       -10.3083916252        4.2907979981        0.1789515764
 H       -11.2333330789        2.0511579310        0.8608774320
 H       -10.0171882430        1.9146207400        2.1417813153
 H        -7.7632686015       -0.5833392319       -3.2785759461
 H        -7.5126547224        1.2141661629       -2.6540740416
 H        -9.5835669145        1.4123488435       -4.5511090434
 H        -8.5477671077        0.2331926869       -5.2658739393
 H        -7.9012334978        0.9884141464       -7.8681666552
 H        -6.5068491716        1.6764713242       -7.1464800629
 H        -6.0090008447        3.0141591203       -8.9451182749
 H        -7.6368938235        3.0814560864       -9.6093745337
 H        -8.6956246556        3.8769513755      -11.3053652099
 H        -8.4001262276        2.2255493568      -11.7186273271
 H        -8.5539047473        3.3369484435      -13.0985436334
 H        -3.7192750035        1.4209456207      -10.7927355948
 H        -3.9487595064        3.1367969021      -10.5048434289
 H        -3.8708782131        2.6473144498      -12.1641390845
 H        -5.9099786527        0.0323904574      -12.1636652924
 H        -5.6129432250        1.2082976516      -13.4286772442
 H        -7.2183258541        1.0213461759      -12.8876847928
 H        -9.3039636371        4.3897759748       -3.9666534301
 H       -10.1375453316        3.3184371638       -5.2353298100
 H        -9.4002924599        4.8668997975       -5.5216880325
 H        -7.1652626327        5.2961585703       -6.1371052953
 H        -6.3244110017        3.9470500156       -6.6959928059
 H        -6.2480358978        4.3904350844       -4.9385947779
 H        -8.5158786670       -1.8535438550       -0.7337002916
 H        -8.0450580285       -0.8003222033        0.7056589815
 H        -7.4803886170       -0.4546862267       -0.9415267173
 H       -10.8837178536       -1.2749537032       -0.8481504388
 H       -11.6951377213        0.3364247152       -0.4583807043
 H       -11.0719128864       -0.6581512183        0.8857198092
 H       -12.6734563660        4.5326757181        0.2850832738
 H       -13.9716551589        5.1785691564        1.2041321922
 H       -13.4273804709        3.6091347138        1.7664117146
 H       -12.2258521792        7.4145972082        1.3602058547
 H       -11.5984357796        6.1181857223        0.2495115661
 H       -10.5670378563        6.6538987904        1.4304475413
 H       -14.8155543340        0.7534570277        7.3210442710
 H       -13.4925213958        0.7282354010        6.0413497512
 H       -15.0763546589        1.2138887660        5.6909633728
 H       -15.7979674529        2.8997577636        8.0581433851
 H       -16.0718227274        3.7571424265        6.6348377710
 H       -15.1872528884        4.5274642902        7.7560194621
 H        -9.8876440568        5.5735491539       10.7914970997
 H       -10.2471119319        7.1575418411       10.5062099213
 H        -8.6130362808        6.7543384786       10.2097790585
 H       -10.5196164676        8.0811719492        7.6370359430
 H        -9.0380170645        7.2266945351        7.0066185024
 H        -9.1070881957        7.9137721560        8.6353150439
 Na      -10.7623450808        4.5331902199        5.5545237482
