117

 C        -7.1498631514        5.2323396131        8.8528509296
 C        -8.5439936000        5.2344258889        8.1651132212
 O        -8.8777017780        4.4588151887        7.2432080255
 C        -9.6613780389        6.3179612398        8.5961689810
 C       -11.1149139946        5.3984051178        8.5459688360
 O       -11.7443752137        5.5472456024        7.4965998143
 C       -11.5479586179        4.3514566746        9.5567395232
 C       -12.8091814495        3.5856901856        9.1096700950
 C       -12.7530774836        3.2264584948        7.4888496027
 O       -11.7703316856        2.8970810701        6.9593042183
 C       -14.2187262439        3.2413377095        6.6375713854
 C       -14.0185960239        4.1466681064        5.3033983740
 O       -13.2640467755        3.6525122155        4.4859232777
 C       -14.6105460101        5.5489832304        5.1234376458
 C       -14.2148255104        5.8775802959        3.6240554013
 C       -12.6939503709        5.8771424751        3.5132651810
 O       -12.0863889972        6.1509105362        4.5984611519
 C       -11.8126513674        5.5182279474        2.2827078275
 C       -10.8863237871        4.1514405305        2.4892799140
 O       -10.6168774572        3.6692151096        3.5577864353
 C       -10.0855006487        3.6141575184        1.3624652419
 C       -10.5747887841        2.2909111998        0.6370495628
 C        -9.2758806368        1.4636532879        0.4977408356
 O        -8.2860922768        1.6541525155        1.1043133488
 C        -9.3697612610        0.1867563603       -0.5228327642
 C        -9.6189275587        0.6152894286       -2.1514507737
 O       -10.6224811082        1.2688407736       -2.2659905996
 C        -8.7833774884        0.1744738523       -3.2976995457
 C        -8.8962326281        1.1039473978       -4.4597551363
 C        -7.5906598179        1.7526838307       -4.7655942840
 O        -6.6191563357        1.3430989233       -4.1373220210
 C        -7.5668969341        3.0907066353       -5.8051402282
 C        -8.6390631335        2.4809252262       -6.9863010432
 O        -9.7414468270        2.9472122583       -7.0664219467
 C        -8.1358767997        1.3062739375       -8.0170801443
 C        -7.8444287252        1.7512971260       -9.5331858920
 C        -6.5383439650        1.2373297368      -10.2067462955
 O        -6.0275806696        0.1582140750       -9.8353675055
 C        -5.7918423748        1.8976138325      -11.5053598942
 C        -6.2382451313        3.3634982751      -11.9238227169
 O        -5.4447503753        4.2764241492      -11.9984682668
 C        -7.7078838681        3.6186688491      -12.5483068389
 C        -4.2901963530        1.7575287135      -11.0712730632
 C        -6.3138716737        0.9997606133      -12.6538550495
 C        -8.0021470011        4.4521768893       -5.1973046999
 C        -6.1522129395        3.2091211253       -6.2942777909
 C        -8.1748865007       -0.7664856598       -0.4855587626
 C       -10.5382808635       -0.6869546217       -0.1596256936
 C       -12.8926605044        5.1878498078        1.1796789718
 C       -11.0157974142        6.7143529190        1.8413159133
 C       -14.3352239079        1.7518563562        6.1380022287
 C       -15.4934825463        3.6406855461        7.4706216303
 C        -9.3096697978        6.9652122598       10.0894307887
 C        -9.5621412068        7.5836526351        7.5983692981
 H        -6.8410589283        6.0663392083        9.3528022688
 H        -6.5026476481        5.1097750239        8.0486954374
 H        -7.0368050978        4.2431469644        9.3712463022
 H       -11.8344434099        4.6776751646       10.5975589920
 H       -10.7321577493        3.6309580771        9.6950937155
 H       -13.7423705687        4.2012222898        9.2354198721
 H       -12.6837875109        2.6045408248        9.6054102899
 H       -14.2447493171        6.3644585485        5.7738194121
 H       -15.7161152527        5.5876679053        5.2264924923
 H       -14.5429893155        6.8791555486        3.2694760497
 H       -14.6161777016        5.1872052987        2.9147710750
 H        -9.1311452115        3.3266406209        1.7848499409
 H        -9.8822927149        4.5018900698        0.6597803096
 H       -11.2414933954        2.4074329464       -0.3373552029
 H       -11.0028876551        1.5607164794        1.3367156109
 H        -9.3701161585       -0.7322671072       -3.6592536244
 H        -7.7259068930       -0.2252712991       -3.2229793448
 H        -9.6308215888        1.8184685181       -4.1459519809
 H        -9.5617307076        0.7236359416       -5.2946688139
 H        -8.9199243837        0.6431495598       -8.0173759652
 H        -7.2351243450        0.9105757874       -7.5011241645
 H        -7.8958809193        2.7621297938       -9.8252508292
 H        -8.5577396707        1.1758446883      -10.1874676356
 H        -7.7560908223        4.6986382137      -12.7652003813
 H        -8.4724970725        3.3566422697      -11.7655780152
 H        -7.9309895631        2.9566226884      -13.3687423413
 H        -4.1214076994        0.7045859500      -10.8272266335
 H        -3.9762062371        2.4174053336      -10.2062609258
 H        -3.6101029812        1.9999439880      -11.8317484266
 H        -6.3910469568       -0.0346835778      -12.2926335766
 H        -5.5744656672        0.9439525536      -13.4562827945
 H        -7.2452340965        1.1434303287      -13.1823115645
 H        -7.4137944020        4.8449344639       -4.4676115842
 H        -8.9757288405        4.2266667944       -4.6248126876
 H        -8.3231264074        5.3479535834       -5.8087804627
 H        -6.0961097756        3.7449011386       -7.3015841175
 H        -5.6867420135        2.2619119652       -6.2955358021
 H        -5.5703013073        3.8375244978       -5.6560320909
 H        -7.9959205132       -1.3752201294       -1.3743607744
 H        -8.3970465923       -1.3059269089        0.4468471469
 H        -7.2057621479       -0.2870500760       -0.2273946122
 H       -10.4846194250       -1.6061025991       -0.8356249455
 H       -11.4865762571       -0.1952101577       -0.5051425586
 H       -10.5154344802       -1.0750242230        0.8800999151
 H       -12.4744365066        5.0554115348        0.1839332653
 H       -13.6185819760        5.9229213505        1.3497060506
 H       -13.5425024597        4.2906238569        1.3338874774
 H       -11.6828599223        7.5155715784        1.4525203050
 H       -10.2078714117        6.4217394571        1.1929536320
 H       -10.5663717435        7.1812784064        2.6960500922
 H       -13.9921965906        1.0783352317        6.8824867459
 H       -13.6700490224        1.3259601953        5.2470810659
 H       -15.4278397634        1.5643266239        5.8661328046
 H       -15.6103975008        2.8463741655        8.1583517061
 H       -16.4517180951        3.6534146551        6.9037840553
 H       -15.6115061071        4.6164213657        7.9476889582
 H        -9.4300922839        6.3047144307       10.9111114440
 H        -9.9315166888        7.8338202700       10.3865126202
 H        -8.2521371082        7.3667660479       10.0618673750
 H        -8.6340792922        8.0759624350        7.7458634674
 H       -10.5007359086        7.9820610621        7.7455153716
 H        -9.5638438987        7.2298010742        6.4947803792
 Na      -10.6239472264        4.5618474364        5.5766468297
