117

 C       -12.7841843203        7.9577235948       -5.0023421907
 C       -11.5871774151        7.6516476552       -5.9944065454
 O       -10.8488288478        8.6101993523       -6.2722638065
 C       -11.2221018805        6.1797587866       -6.3739644588
 C       -10.1960675997        5.5614062583       -5.2737548699
 O       -10.1894180049        4.3750898247       -5.0115202332
 C        -9.3608989380        6.6424728096       -4.5700138521
 C        -7.8791597516        6.2119208592       -4.2830391088
 C        -7.6796536895        5.8338365283       -2.7565184271
 O        -8.2293096347        6.5558988410       -1.9507876274
 C        -6.9704766470        4.4862201406       -2.4523207699
 C        -5.9756834206        4.6913233337       -1.3101918085
 O        -4.8176654790        4.4205638870       -1.4112353086
 C        -6.5650547026        5.2731807960        0.0293263550
 C        -5.7237824292        4.8544598707        1.1679970601
 C        -6.4338746856        3.8668872725        2.0868884525
 O        -7.5267632458        3.3630585540        1.8790073593
 C        -5.8071258956        3.6343253258        3.3980744249
 C        -6.6575361186        4.8366687648        4.2125309032
 O        -6.4108171470        5.9728694153        3.9860354279
 C        -7.6718068709        4.5045669623        5.4258256621
 C        -8.9519949823        5.3066379939        5.2185393339
 C        -9.9158793808        4.5993515212        4.1958612138
 O        -9.8764210357        3.3955745138        4.1968547422
 C       -10.9542963599        5.3590672746        3.2508472893
 C       -12.0672223999        4.2861685298        2.8105730888
 O       -11.7706102434        3.1109498055        2.5359321714
 C       -13.4583400354        4.7986251000        2.6076897226
 C       -14.4349805866        3.7368283100        2.1523873679
 C       -13.9385743937        3.2407010236        0.7837946082
 O       -13.2557332050        3.9818542115        0.0665551348
 C       -14.2842210997        1.7422452203        0.2313393902
 C       -12.8470963470        1.2412186373       -0.1240630892
 O       -12.3295607654        0.4695001142        0.6219091748
 C       -11.9945753897        1.5703220856       -1.4905357125
 C       -10.9333225198        0.4283994681       -1.5229905159
 C        -9.9944149351        0.5277511045       -0.3630903008
 O        -9.5377355132        1.6230025513        0.0431091281
 C        -9.4407705130       -0.8037207887        0.3314912667
 C        -9.9789369568       -0.8814228076        1.8087245872
 O        -9.8331533485        0.0474364007        2.6335720255
 C       -10.4278391224       -2.2170545384        2.3596322619
 C        -9.8738631406       -2.1272221270       -0.4727684071
 C        -7.9162673917       -0.7920923739        0.3905388240
 C       -14.7691346006        0.8014650560        1.3371983806
 C       -15.2031162139        1.8033432694       -1.0067012890
 C       -11.5757406227        6.5868561647        3.9506366087
 C       -10.2222041749        5.8120809370        1.8841123064
 C        -6.1666197875        2.2526837393        3.9763671165
 C        -4.3033062899        3.9208719412        3.5520476076
 C        -8.0712867584        3.3938341523       -2.1255402732
 C        -6.1254360248        3.9566748217       -3.6795100667
 C       -12.3880471480        5.2714341950       -6.6764265377
 C       -10.2832516852        6.2779738098       -7.6466814597
 H       -12.9348860539        7.1803135960       -4.2897646462
 H       -13.8004544975        8.0117336363       -5.4653578729
 H       -12.6185718078        8.9392555518       -4.4848432381
 H        -9.8066453412        6.9459118717       -3.6323459788
 H        -9.3303768748        7.4415608984       -5.2294040215
 H        -7.2246268702        7.1088283086       -4.5070879406
 H        -7.5987461881        5.4067567609       -5.0022788299
 H        -7.6284869748        5.0074805345        0.0468915832
 H        -6.4742624233        6.3768332392       -0.1858614286
 H        -5.4701193056        5.6786821705        1.8394241772
 H        -4.8369409430        4.3954769711        0.7565784124
 H        -7.2918801367        4.8371398657        6.4011753467
 H        -7.8930311957        3.4388321227        5.4582727895
 H        -8.7356060945        6.3217596946        4.9177361485
 H        -9.5111254931        5.2948378607        6.1820192374
 H       -13.5292864492        5.6115395944        1.8802145000
 H       -13.7808377988        5.0622186052        3.5646431805
 H       -15.4744766779        4.2093533417        2.1185728816
 H       -14.3918745874        2.8489887400        2.7904648652
 H       -11.5191926496        2.5805695402       -1.3577903868
 H       -12.5330910093        1.6096155435       -2.4307873799
 H       -10.2390582432        0.5942914237       -2.2864859032
 H       -11.4267227842       -0.4648059496       -1.6544712085
 H       -10.9336036962       -2.1770975338        3.3057815192
 H        -9.4597328864       -2.6174313687        2.6793524910
 H       -11.0265971513       -2.9399856300        1.8345420993
 H        -9.7514380973       -1.8391013361       -1.5041678907
 H       -11.0062504907       -2.2510508960       -0.3229507960
 H        -9.3572519201       -3.0285153060       -0.1368341533
 H        -7.6374906533       -0.1719403223        1.2402928037
 H        -7.4719226348       -0.5947470226       -0.5606788980
 H        -7.5582743943       -1.8211656097        0.6603654734
 H       -13.9601149871        0.5758813913        2.0686968636
 H       -14.7900611781       -0.1419569293        0.8227791881
 H       -15.7987335223        0.9694446367        1.6792347206
 H       -15.7599353237        0.8600291213       -0.9788835249
 H       -14.5942936187        1.9792953038       -1.9003905109
 H       -15.8271427855        2.7370095859       -0.9586961362
 H       -10.7707488161        7.3075735366        4.2123553931
 H       -12.0342907067        6.2012507109        4.8843641567
 H       -12.2880368114        7.0696349797        3.2988701518
 H        -9.1670382262        6.1638217510        2.0922312956
 H       -10.8351517455        6.6070248320        1.4736125256
 H       -10.0340390501        4.9048690554        1.2347761192
 H        -5.7196120969        2.3043159132        4.9470141156
 H        -5.8898543949        1.3016019331        3.4702922472
 H        -7.2108313161        2.0632423216        4.0719256309
 H        -3.6519637446        3.1540411039        3.0374077108
 H        -4.1007974618        4.0515396034        4.5909877168
 H        -3.9369806155        4.7490445186        3.0977449828
 H        -8.2865841729        2.8363012235       -3.0241576608
 H        -8.9615056007        3.8985637082       -1.8421780854
 H        -7.6344635278        2.6797232081       -1.3785845114
 H        -6.7923172761        3.6754625539       -4.4667943131
 H        -5.5788408688        3.0998068163       -3.4934927349
 H        -5.3579974890        4.5976689757       -3.9917409170
 H       -12.0652137374        4.3974227976       -7.1728451223
 H       -13.1979023059        5.6353937123       -7.2913473674
 H       -12.7800472916        4.9070501900       -5.7172274589
 H        -9.4995043035        6.9762743740       -7.2968348763
 H       -10.8748399929        6.8057717775       -8.4284890626
 H        -9.7566306724        5.3639222060       -8.0365892443
 Na       -9.4889296809        2.3034882879        2.1991493500
