117

 C        -7.2947339129        5.2715659940        8.7453118478
 C        -8.6051344744        5.3511268501        7.8973338707
 O        -8.5683873671        4.6753533493        6.8545971578
 C        -9.7383976563        6.2210587475        8.4240761376
 C       -11.1676455446        5.6317299884        8.2282573592
 O       -11.8561780228        5.8272145335        7.2247760888
 C       -11.7099789621        4.7342611157        9.3198544748
 C       -12.9485495731        3.9772996835        8.9255780759
 C       -12.8784317609        3.4426942880        7.5765029111
 O       -11.8422131515        3.0404560428        7.1180149050
 C       -14.2352092882        3.4369575395        6.7750251523
 C       -13.8960094056        4.0759568276        5.4318731587
 O       -13.0992640308        3.5205705637        4.7142661877
 C       -14.6224692287        5.3894122866        5.0023764001
 C       -14.0674765290        6.1685594941        3.8309209312
 C       -12.4353738312        5.9902743029        3.6892058682
 O       -11.8061833154        6.2260746297        4.6463467586
 C       -11.8782361147        5.5941855919        2.3137620384
 C       -10.9407334633        4.2101633079        2.4155734307
 O       -10.7403344747        3.5271886460        3.4242952549
 C       -10.1874680244        3.7095174373        1.2312954165
 C       -10.5043688935        2.2276097487        0.9770617108
 C        -9.3006728005        1.3279940086        0.5901798543
 O        -8.3541514341        1.3511245934        1.2367434533
 C        -9.5359367796        0.1964124804       -0.5489951434
 C        -9.8353682863        0.8718181712       -2.0065697908
 O       -10.7256747441        1.6745958838       -1.9213562487
 C        -9.0230112871        0.3600608746       -3.2686073143
 C        -9.0394344479        1.1106610436       -4.5273576307
 C        -7.5414962689        1.5841455903       -4.7523976333
 O        -6.5990672572        1.4194640827       -4.0093582623
 C        -7.3323340129        2.5910131848       -6.0940972297
 C        -8.4849269596        2.3247715279       -7.1106163910
 O        -9.6019588506        2.7639904014       -6.8878093529
 C        -8.3444166297        1.4604578241       -8.4523752581
 C        -7.7007238557        2.0752144186       -9.6584374866
 C        -6.5740995522        1.2904100509      -10.2431674196
 O        -6.1929736384        0.1832005318       -9.7375251242
 C        -5.9701247728        1.6541651654      -11.5720159674
 C        -6.1444346271        3.1050091010      -11.8986529988
 O        -5.4452629509        3.9562769279      -11.3672724627
 C        -7.3746010318        3.6369768626      -12.6423913899
 C        -4.3609884461        1.5294027995      -11.0987731286
 C        -6.4682914236        0.6818181595      -12.7653501631
 C        -7.6212334282        3.9828654532       -5.5000400616
 C        -5.9019459273        2.3544292341       -6.5842385746
 C        -8.2516386836       -0.6643144439       -0.6087398754
 C       -10.6248081769       -0.7838042573       -0.0255733769
 C       -12.9086194936        5.6016158581        1.1933055939
 C       -10.7504345814        6.7870022595        2.1005585408
 C       -14.4941748783        1.8091173180        6.5203576986
 C       -15.3911564262        4.0139278836        7.6269439850
 C        -9.6102471874        6.5348544020        9.9745043552
 C        -9.5119789876        7.5830353857        7.6923724969
 H        -7.0168446276        6.2947767735        8.9404528321
 H        -6.4415818057        4.6707561523        8.3926089428
 H        -7.6319493657        4.7697577680        9.7605663608
 H       -12.0595762154        5.2682144505       10.1687530877
 H       -11.0179141999        4.0449904840        9.7373860015
 H       -13.8587104335        4.5624119419        8.9435168515
 H       -13.0594870951        3.0834387270        9.5798587211
 H       -14.5556425125        6.1356997088        5.8481098232
 H       -15.6613762170        5.3529168462        4.7753131527
 H       -14.1595071458        7.2127784913        4.0879436389
 H       -14.6119596884        6.1561070792        2.8656101839
 H        -9.1435163760        3.9549615768        1.5929772340
 H       -10.3799146428        4.4487101143        0.2911014507
 H       -11.2525122447        2.0156060292        0.1610061069
 H       -10.8511907411        1.7649880240        1.8683626859
 H        -9.3021284090       -0.6913720090       -3.4665692557
 H        -7.8802389025        0.1511412547       -3.1793706894
 H        -9.6843642114        1.9519674849       -4.4748887375
 H        -9.6460696601        0.6570942736       -5.3053242661
 H        -9.3055388522        1.1138300671       -8.6500859795
 H        -7.6840733416        0.5893267784       -8.1245285402
 H        -7.2990119711        3.0849603312       -9.5304256659
 H        -8.4389120040        2.1688399564      -10.4854792677
 H        -6.9509585232        4.4599900961      -13.2276056708
 H        -8.1552166796        4.0567428304      -11.9160743179
 H        -7.8163983629        2.9573567246      -13.3395565769
 H        -4.0742619119        0.5493585209      -10.6965340792
 H        -4.2296430151        2.3308518387      -10.3320701753
 H        -3.6593048759        1.7509372429      -11.8583517874
 H        -5.7052677486       -0.0703352596      -12.9229322370
 H        -6.6472446894        1.0443935262      -13.7541788516
 H        -7.3688518083        0.1154703840      -12.4545019309
 H        -7.4294452622        4.0892267405       -4.5191560807
 H        -8.6508673916        4.3308466128       -5.5597859646
 H        -7.1594950205        4.7963764648       -6.1458673935
 H        -5.3771083596        3.2132076182       -7.1671015158
 H        -6.0282263056        1.5279755634       -7.2598181533
 H        -5.2601417267        1.9355189082       -5.8523901016
 H        -8.6115503982       -1.5312592140       -1.2278233092
 H        -7.7269916309       -0.8960590502        0.2711339327
 H        -7.5396547954       -0.1144134004       -1.1591954291
 H       -10.8226819207       -1.5930022898       -0.7050755348
 H       -11.5405491606       -0.2594065105        0.0724406962
 H       -10.2448679698       -1.2487895190        0.7867849653
 H       -12.5481790315        5.3103991153        0.1982802664
 H       -13.4571330883        6.5864877315        1.2302912266
 H       -13.5933411025        4.7967339007        1.3991557392
 H       -11.0379719936        7.8843062626        2.1291122665
 H       -10.2269789584        6.6414683347        1.0898184492
 H       -10.0123745716        6.5102594110        2.8678897262
 H       -14.9331295558        1.4503863585        7.3113923774
 H       -13.6927530325        1.0989413615        6.4050119727
 H       -15.1687495547        1.7543825552        5.7177053357
 H       -15.3485408437        3.7565749372        8.6820823883
 H       -16.3827448686        3.6438219701        7.2942347178
 H       -15.3788171927        5.1789718459        7.6804439435
 H        -9.2027604807        5.6601425001       10.4887149612
 H       -10.6168399718        6.7459425447       10.3181418409
 H        -9.0526555002        7.3648537236       10.3435556665
 H        -8.8090248937        7.2302528076        6.9471576021
 H        -9.1370948192        8.2383213966        8.4467901957
 H       -10.4160225768        8.0587555469        7.3524427937
 Na      -10.5894202353        4.3903670309        5.5475991113
