117

 C        -7.2617032661        5.0514975456        8.2425295250
 C        -8.7179587955        5.3998395951        7.7909959701
 O        -9.1766016843        4.9470541484        6.7426509178
 C        -9.6476928928        6.5345708917        8.5601575768
 C       -11.1588694758        5.9107096937        8.6197365956
 O       -11.9552690841        6.1849446883        7.7067071396
 C       -11.6199900345        4.7767050460        9.4873363804
 C       -13.1283971489        4.4282717939        9.0817584997
 C       -13.1838660547        3.5933972022        7.7940337295
 O       -12.2168533975        2.9911443388        7.4211669265
 C       -14.3820717840        3.4918314373        6.8431425241
 C       -13.8822249503        4.1158056526        5.4833859210
 O       -13.2584048344        3.4324833492        4.7343670555
 C       -13.8521480811        5.6635205175        5.1581303579
 C       -13.7373863095        5.9060482883        3.6963868907
 C       -12.1319876903        5.8857595960        3.5038141915
 O       -11.4753362783        6.2243853741        4.4101718501
 C       -11.4703167968        5.7463804023        2.1524770540
 C       -10.8116944490        4.2964086881        2.2166811961
 O       -10.3904541205        3.8370223065        3.2940507759
 C       -10.6036054602        3.5414152310        0.9362916053
 C       -10.8081012231        2.0555970151        1.2201334990
 C        -9.5348195373        1.2904412385        0.6054194577
 O        -8.5066761207        1.8025264460        0.9165432604
 C        -9.5836572166        0.1237703926       -0.4284093661
 C        -9.6830383153        1.0019125918       -1.7909013927
 O       -10.2393089693        2.0845733193       -1.7624712000
 C        -9.2939039919        0.3773659424       -3.1056324111
 C        -9.2643721359        1.4281115718       -4.1802139865
 C        -7.7153362191        1.6094049785       -4.6106007258
 O        -6.8712635447        1.0486003596       -3.9687272705
 C        -7.2933584261        2.1779697400       -6.1167180114
 C        -8.5416095606        2.1562925027       -7.1272102527
 O        -9.5711905341        2.7499723878       -6.8665183378
 C        -8.4146999395        1.5252596224       -8.5266732034
 C        -7.3684889306        2.1482523437       -9.5035412590
 C        -6.5330952133        1.0622292822      -10.2968888717
 O        -6.5930720623       -0.0243380311       -9.7946951640
 C        -5.8630785649        1.4153333755      -11.6747982580
 C        -6.0130195977        3.0162568312      -11.6963314062
 O        -5.5742444943        3.6935807305      -10.7914827518
 C        -6.8222584719        3.5825832787      -12.9429284042
 C        -4.2940101710        1.2920932573      -11.7052444554
 C        -6.6502586724        0.5126166217      -12.6683162813
 C        -6.7961658203        3.6586435922       -6.1137616184
 C        -6.2677267600        1.1683088320       -6.7026707073
 C        -8.3399628644       -0.7438715102       -0.1415481627
 C       -10.9761199235       -0.6452327762       -0.4738360857
 C       -12.4933334571        5.7743597707        1.0038584278
 C       -10.3092647147        6.7611005461        2.0580811044
 C       -14.6329458977        2.0430869688        6.6663438888
 C       -15.7871268753        4.1817611296        7.4121508528
 C        -9.0055292923        6.9371343748        9.9104229193
 C        -9.6149054013        7.8158871220        7.7031839060
 H        -6.6350506527        5.9064270199        8.4996433594
 H        -6.9034059466        4.5493321237        7.3154708133
 H        -7.2029326739        4.2580164374        9.0776305759
 H       -11.6391849837        5.0073829175       10.5521625239
 H       -10.8963291214        3.9679983516        9.4447056884
 H       -13.7452856947        5.3123570622        9.0010798427
 H       -13.7198341404        3.8661154070        9.8208513126
 H       -13.0208754854        6.2107469748        5.6878864318
 H       -14.7517819506        6.1486252352        5.4236598017
 H       -14.1618824823        6.8708749034        3.3248969156
 H       -14.1585879935        5.1287302942        3.0556263647
 H        -9.4685402618        3.8433177115        0.8201445130
 H       -11.1062186201        3.9489908433        0.0581820772
 H       -11.7247044936        1.5579366269        0.8139714019
 H       -10.8758579377        1.7669724426        2.1958032128
 H        -9.9294619039       -0.5024302085       -3.2844498863
 H        -8.3538516791       -0.1776147107       -3.1541807156
 H        -9.6938856255        2.3082736366       -3.7204571422
 H        -9.9823399152        1.4326872553       -5.0553897739
 H        -9.4153421298        1.4630877444       -8.8507660559
 H        -8.1581324366        0.4026575968       -8.3495622443
 H        -6.7943127684        2.7818571304       -8.8426736204
 H        -7.8350758722        2.9001035568      -10.2082393342
 H        -6.6338832764        2.9386694088      -13.7610983808
 H        -6.3261884966        4.5557690875      -13.0823502783
 H        -7.8854616248        3.6272864372      -12.8483297628
 H        -3.7621891444        0.3072092456      -11.6001256817
 H        -3.7261572145        2.1060828838      -11.1163624282
 H        -4.1270405120        1.6187739480      -12.7142189468
 H        -6.6007964570       -0.5101923404      -12.3058533623
 H        -6.3128974190        0.3588335165      -13.6784183571
 H        -7.7037620478        0.8075957255      -12.7243369439
 H        -5.8523761623        3.8272322629       -5.6879779318
 H        -7.4458844119        4.2013307974       -5.3923497357
 H        -6.8407756129        4.2682907856       -7.0780744321
 H        -5.7025699119        1.5877062893       -7.5826289783
 H        -6.6229006393        0.2558770504       -7.1312623904
 H        -5.6623254710        0.9201394170       -5.8764584646
 H        -8.5429112381       -1.7256747520       -0.4711014737
 H        -8.2338195669       -0.9650964038        0.9102671034
 H        -7.3976116534       -0.1936853815       -0.4692817485
 H       -10.9672545746       -1.6059644719       -1.0296365703
 H       -11.8232570295       -0.0114049372       -0.7330255358
 H       -10.9903267382       -0.9160372977        0.6035957925
 H       -12.0896566064        6.1364999355        0.0903306956
 H       -12.9770468052        6.6858206629        1.0808317001
 H       -13.0778548790        4.8701496303        0.7823887792
 H       -10.6805489915        7.7838420473        1.8881681981
 H        -9.8065122090        6.6976667634        1.1107546711
 H        -9.6923961198        6.7154169804        2.9320169439
 H       -14.5792112094        1.5579463523        7.6043274471
 H       -13.8046151874        1.6518389953        6.0423536516
 H       -15.5351549050        1.7930272584        6.2760262518
 H       -16.3223525369        3.4753136872        8.0713568445
 H       -16.4593855562        4.2398231524        6.5164309375
 H       -15.5663310482        5.0918285900        7.9640885227
 H        -8.8376736324        6.1626145671       10.6122444513
 H        -9.7267831603        7.6841098730       10.3236401064
 H        -7.9691591275        7.4569944232        9.8043341623
 H       -10.5589511414        7.8947528136        7.1394776705
 H        -8.8975809924        7.6706593599        6.9763757137
 H        -9.2309911749        8.5808979596        8.5023066199
 Na      -11.0469341376        4.0971953833        5.7512196946
