117

 C        -7.4736241947        5.1592153964        7.7833919493
 C        -8.9837239303        5.3922851796        7.6910402276
 O        -9.4793943184        4.5606923615        6.9089505163
 C        -9.8225096432        6.4140771083        8.4466667260
 C       -11.3327849877        6.0842244809        8.3698060622
 O       -12.0628534394        6.5116002952        7.4911580652
 C       -11.7349910100        5.2470046745        9.6176886458
 C       -13.0161918972        4.5014618199        9.3375539245
 C       -12.8963423707        3.7574390707        7.9500462810
 O       -11.9289658175        3.1274059060        7.6075277368
 C       -14.3408496442        3.7920660380        7.0761712288
 C       -13.8748221699        4.1979629454        5.5772434094
 O       -13.3669683270        3.3969808651        4.8602810893
 C       -14.1700741599        5.5611581458        5.0317379121
 C       -13.5324448732        6.0858052239        3.7286763114
 C       -11.9755446328        6.1865070131        3.6277783062
 O       -11.2570725142        6.4868543852        4.5577014591
 C       -11.3719396564        5.8651518199        2.2263535484
 C       -10.9138480781        4.4486936162        2.3341556366
 O       -10.4088136013        3.9304721786        3.3208290161
 C       -11.0721779512        3.4791825395        1.0912828826
 C       -10.7100999227        2.0175825293        1.4380976931
 C        -9.5666929542        1.2723818026        0.6439168435
 O        -8.4633276574        1.4740622131        0.9379904712
 C        -9.8304076895        0.2238465735       -0.4587903603
 C        -9.6528055445        1.0810748615       -1.7950337622
 O        -9.7808112829        2.2611735699       -1.6338916646
 C        -9.5549102603        0.3877167806       -3.1418435504
 C        -9.1190508607        1.2728150533       -4.4062938826
 C        -7.5601805519        1.2332307540       -4.7578964680
 O        -6.7355457665        1.2043284365       -3.8927462943
 C        -7.1118700946        1.6764293642       -6.2203229525
 C        -8.3296377370        1.8549125884       -7.0740012771
 O        -9.1582003734        2.6422920163       -6.6572856452
 C        -8.5803931678        1.1436471496       -8.3788301148
 C        -7.9161976562        1.9219327275       -9.5894751093
 C        -6.9180058908        1.0202985691      -10.3113473878
 O        -6.6250685869       -0.0910714368       -9.8479552724
 C        -5.9832711454        1.3762487799      -11.6682237234
 C        -5.8306446535        2.9746092218      -11.8875143440
 O        -5.4608518691        3.7452256455      -11.0520340813
 C        -6.2407601803        3.5729349113      -13.2678994658
 C        -4.5573305696        0.8724427751      -11.4952454072
 C        -6.6773772438        0.8388867435      -12.9868872262
 C        -6.4878090753        3.0430793042       -5.9897782436
 C        -6.2306639725        0.4870670823       -6.6064697870
 C        -8.6831083522       -0.8123350433       -0.6056361224
 C       -11.0888382025       -0.5383382256       -0.2956152700
 C       -12.3208321841        6.2653587787        1.0697012049
 C       -10.0421177882        6.8046214203        1.9407739974
 C       -14.7724169522        2.3455255306        6.9041963934
 C       -15.4190431034        4.6734121993        7.6379253919
 C        -9.3185751337        6.5604468833        9.9731567457
 C        -9.4619455852        7.8507675516        7.8028277597
 H        -6.9771832787        6.0377549144        7.8518964710
 H        -7.2002284857        4.7112459013        6.8987456925
 H        -7.1672686466        4.5267085003        8.6589720177
 H       -11.8133422222        5.8235199471       10.5763367261
 H       -10.9067434364        4.4998314528        9.8778909757
 H       -13.8867484402        5.1462404913        9.2554776699
 H       -13.3809651932        3.9240894578       10.2012056333
 H       -14.1730511618        6.3128233852        5.8525552135
 H       -15.2016385723        5.4512519776        4.7392810213
 H       -13.7906544754        7.1274941215        3.6415073024
 H       -13.8412694151        5.5418169081        2.8007762142
 H       -10.3302085159        3.8664673697        0.4858352913
 H       -11.9801566622        3.6185661943        0.4396726938
 H       -11.5376391975        1.2975891962        1.4311633645
 H       -10.4342735178        1.8634075055        2.4797131012
 H       -10.4462927901       -0.0118113860       -3.4636656581
 H        -9.0219662294       -0.5517794631       -3.1077618461
 H        -9.4925470445        2.3346977624       -4.2690555283
 H        -9.6948263951        0.9615883886       -5.2928327909
 H        -9.6063372304        0.8485059661       -8.6017953863
 H        -8.1029801319        0.1541276679       -8.3834949357
 H        -7.1675529641        2.7357745559       -9.3812232953
 H        -8.6439238312        2.3706640534      -10.2335872925
 H        -7.2701898284        3.9122955024      -13.1438862957
 H        -6.0369202312        2.7522671533      -14.0322294104
 H        -5.6839628968        4.4775874512      -13.4151136129
 H        -4.5381181292       -0.1882070914      -11.2157914582
 H        -4.1000825704        1.3773884528      -10.6050760164
 H        -3.9475018619        0.9028629517      -12.3701245501
 H        -6.5068925702       -0.2162439689      -13.0708775762
 H        -6.2849807993        1.1365500283      -13.9274436401
 H        -7.7791640094        0.9640350685      -13.0841095511
 H        -5.8700623649        3.0846119298       -5.1920894679
 H        -7.1800789576        3.8678826594       -5.9204804374
 H        -5.6943270380        3.2890509941       -6.7888470655
 H        -6.0367578397        0.3042303971       -7.7362782443
 H        -6.8581438740       -0.4041325659       -6.3573258864
 H        -5.2636860482        0.4919416775       -6.1349201518
 H        -8.8208977361       -1.3667063426       -1.5682163345
 H        -8.5565135667       -1.6231801627        0.1486845456
 H        -7.8417874337       -0.0661868219       -0.7684483210
 H       -11.2858438292       -0.9948623266       -1.2949708678
 H       -11.8861892327        0.2283031437       -0.1853760831
 H       -11.1587724594       -1.1097737889        0.5919912476
 H       -11.9647155606        5.9317762070        0.0744093922
 H       -12.4877919692        7.3280538623        0.7414958946
 H       -13.3118036490        5.7626791413        1.2030274611
 H       -10.2645344575        7.8835142300        2.0150187040
 H        -9.4734733887        6.6598693385        0.9927469567
 H        -9.4870686820        6.5781873593        2.8187699583
 H       -15.5909499962        2.0966418634        7.5948711912
 H       -13.9204338471        1.5161102305        6.8298891088
 H       -15.2610199448        2.2103717614        5.8915375603
 H       -15.6541129894        4.3669298655        8.6219914931
 H       -16.2595367284        4.6836720790        6.9757146445
 H       -14.8936409376        5.6587105647        7.5773245081
 H        -9.2364151341        5.6346229818       10.5496378998
 H        -9.9952636688        7.1378263612       10.5922913368
 H        -8.2996738665        6.9238461676        9.8590595463
 H       -10.1340890597        7.7995290525        6.9291133907
 H        -8.4849502173        7.8419804949        7.4375485784
 H        -9.8435746707        8.6136648782        8.6316280133
 Na      -11.1745601271        4.2625339089        5.4313490919
