117

 C       -12.8092808970        7.7894102423       -5.1022336032
 C       -11.5856540134        7.6214004308       -6.0329827914
 O       -10.9692307063        8.6143951362       -6.4290328018
 C       -11.2414362806        6.1692925620       -6.3876227720
 C       -10.3437006446        5.5809343624       -5.3388157836
 O       -10.2319952919        4.4250005395       -5.0534914167
 C        -9.4440408878        6.6221577753       -4.5653053203
 C        -8.0430179798        6.0241150217       -4.4426101789
 C        -7.8247695049        5.7638309161       -3.0191591112
 O        -8.2379168295        6.3708885479       -2.0736682361
 C        -6.9524321615        4.5141423608       -2.5836567657
 C        -5.9157724590        4.7616956871       -1.3819558474
 O        -4.7663860192        4.4224453441       -1.4089192575
 C        -6.5000111523        5.3433651870       -0.0931045761
 C        -5.7252448142        4.9144808658        1.1307053204
 C        -6.4429722890        3.8982779690        2.0230343152
 O        -7.5357882222        3.5065882045        1.6406004019
 C        -5.8682486359        3.7654897662        3.5872201104
 C        -6.6412320107        4.8253241487        4.2832725906
 O        -6.5401162808        5.9977874109        3.9652896251
 C        -7.6662459066        4.5097951825        5.4182620059
 C        -8.9428047680        5.3379509769        5.1710749536
 C        -9.7840906474        4.6235063024        4.1376291132
 O        -9.7534679187        3.4092166384        4.2062070631
 C       -10.8870153044        5.3212162977        3.2113869769
 C       -11.9819833873        4.2741265558        2.8169136263
 O       -11.7400342834        3.1201436221        2.5135717203
 C       -13.4843302207        4.7480048695        2.8435174709
 C       -14.4170280772        3.6140490672        2.1773236034
 C       -13.8825153028        3.2077650619        0.7782316622
 O       -13.2674977126        3.9841663462        0.1237716593
 C       -14.1985841395        1.7360207991        0.2339867428
 C       -12.7940903225        1.1566182429       -0.0964707556
 O       -12.2085442310        0.5432957557        0.7401979188
 C       -12.0993171305        1.4107603660       -1.3758345380
 C       -10.9194908441        0.4307694062       -1.5206188667
 C        -9.9542705758        0.5059386307       -0.2512042740
 O        -9.5782603769        1.5620034802        0.2100961772
 C        -9.4877445834       -0.7977479327        0.4095953029
 C        -9.8722708953       -0.9331626740        1.9842068315
 O        -9.8071674405        0.0096985923        2.7389207362
 C       -10.2499007566       -2.3031366166        2.4127786887
 C        -9.8991815098       -2.0480124655       -0.3430893875
 C        -7.8660014355       -0.6959071542        0.5068335735
 C       -14.8470304449        0.9767565088        1.4220614827
 C       -15.1569458973        1.9193102188       -0.9556341524
 C       -11.4415771880        6.4874258470        3.9972768024
 C       -10.2502528658        5.8824700712        1.8472261531
 C        -6.2123184153        2.3532618981        4.0523522918
 C        -4.3827689454        4.0796066417        3.6118234291
 C        -7.9888311969        3.4916490614       -2.0529900646
 C        -6.1449771891        3.8744356363       -3.7536777047
 C       -12.3354211370        5.1475107904       -6.6337237040
 C       -10.3208701348        6.2122122405       -7.8142100343
 H       -12.8446350584        7.2373968197       -4.1414075116
 H       -13.7609795431        7.5427320530       -5.5003460698
 H       -12.7689559939        8.8389607283       -4.9152073620
 H        -9.7320349260        6.8696439280       -3.5738558268
 H        -9.3159141940        7.4803491947       -5.1945879704
 H        -7.2187796020        6.7493556173       -4.7585231481
 H        -7.9362597318        5.0855780570       -5.0388279174
 H        -7.4692634431        4.9793804968       -0.1661197639
 H        -6.5800987187        6.4519926492       -0.1454090164
 H        -5.4911254826        5.7458446397        1.7474680417
 H        -4.8112802661        4.3261999299        0.7618525998
 H        -7.3324910102        4.8427376633        6.3918521619
 H        -7.9690285536        3.5000644918        5.4559131349
 H        -8.8954984940        6.4147425211        4.8300534043
 H        -9.4523740992        5.2435167322        6.0901204577
 H       -13.5959324281        5.5997788318        2.1266351324
 H       -13.8637823904        4.9533970946        3.8836820219
 H       -15.4286332062        4.0398431158        1.9654613759
 H       -14.5089616270        2.7024407405        2.7731790127
 H       -11.9264598698        2.4874271019       -1.4190830825
 H       -12.7837753854        1.1911090574       -2.2089322616
 H       -10.4094794131        0.4965153358       -2.4998609405
 H       -11.5387033367       -0.5398458507       -1.4795959399
 H       -10.5919145910       -2.3974524107        3.4979661199
 H        -9.4128591752       -3.0054202723        2.3814008374
 H       -11.1468041134       -2.6379662518        1.9650207886
 H        -9.4761866598       -1.9895181108       -1.3186697030
 H       -11.0337574300       -2.1023937586       -0.3680409194
 H        -9.5154800858       -2.9122539362        0.2217534105
 H        -7.6313501619       -0.0393526236        1.2816715720
 H        -7.4587197814       -0.4989585758       -0.4482844341
 H        -7.4201184118       -1.7480083968        0.7826149959
 H       -14.0185487674        0.7188247352        2.1860943839
 H       -15.1162099028       -0.0400688468        1.0614302869
 H       -15.8057844363        1.4504140480        1.7173099751
 H       -15.2883840891        0.8772249909       -1.2633832700
 H       -14.7007987879        2.5067441158       -1.6447940030
 H       -16.0805189158        2.4653799467       -0.7068460674
 H       -10.6430376403        7.1890901070        4.3444522051
 H       -12.0859595047        6.1004496196        4.7947515630
 H       -12.0505958719        7.0770176516        3.1983835512
 H        -9.5805627482        6.7117548839        2.1323963727
 H       -11.1067846342        6.2925727984        1.2292834287
 H        -9.6060907592        5.1459226972        1.3934551626
 H        -5.9810214589        2.1704757380        5.0445251182
 H        -5.5720585205        1.5863060105        3.5084795558
 H        -7.2547928943        1.9408039467        3.7777111111
 H        -3.7924983309        3.2767412681        3.2199397386
 H        -3.9515252003        4.4861199899        4.5292944564
 H        -4.0955314640        4.8323301748        2.8503544873
 H        -8.7145892564        3.2304456882       -2.7831589697
 H        -8.5096155969        4.0212490699       -1.2886499199
 H        -7.4319614789        2.6340705502       -1.6856208170
 H        -6.8293787594        3.6158291550       -4.5349861610
 H        -5.6112357707        2.9845024116       -3.5630421775
 H        -5.3599350665        4.4675697431       -4.1033070925
 H       -11.9630512518        4.1641599675       -6.6407144356
 H       -12.6592053428        5.2299058117       -7.6708568357
 H       -13.1407417463        5.1710198935       -5.9206269485
 H        -9.4670228026        6.8895578989       -7.6089338864
 H       -10.9779282891        6.6604458111       -8.6208659834
 H        -9.8892663104        5.2436086738       -8.1153516016
 Na       -9.5491408200        2.3921980129        2.1476855081
