117

 C        -7.4926380827        5.4329488316        7.6520548539
 C        -8.9319962205        5.3293999603        7.6445063249
 O        -9.4647775648        4.4035574227        7.0804107703
 C        -9.7399623081        6.4598041433        8.4621545364
 C       -11.3062728800        6.1092844590        8.4246829315
 O       -11.9915558546        6.3392345363        7.4351574189
 C       -11.8857564576        5.2721726437        9.7441953191
 C       -13.0705147335        4.3819591400        9.4433302721
 C       -13.0555887525        4.0304116848        7.9454565654
 O       -12.0386781867        3.5533574899        7.4370445666
 C       -14.4647759742        3.9999240922        7.0624496903
 C       -13.9753498110        4.3837757865        5.6375765966
 O       -13.2135679871        3.6625330999        4.9306655436
 C       -14.1033276368        5.7988355290        5.1032747609
 C       -13.6620034220        6.0483592359        3.7043133187
 C       -12.1175820137        6.2928008724        3.5506545889
 O       -11.4771331999        6.5692650314        4.5485433945
 C       -11.2997023858        5.8689517024        2.2614956030
 C       -11.0619602581        4.2678348236        2.3010059025
 O       -10.4167477972        3.8942417913        3.2852176632
 C       -10.9956071910        3.3626465477        1.0966808997
 C       -10.6886344711        1.9251346937        1.5073680357
 C        -9.5026546728        1.2230210953        0.7226303143
 O        -8.3723687597        1.3011907504        1.2127479015
 C        -9.7943074166        0.4047211457       -0.4536392081
 C        -9.7437172756        1.2330142355       -1.9289331667
 O        -9.6351744390        2.4367924702       -2.0454110046
 C        -9.5774856043        0.4048757226       -3.1694709487
 C        -9.2670603962        1.1487011801       -4.4377738543
 C        -7.6692663788        1.2022207034       -4.5673910148
 O        -6.9449338666        0.9277113851       -3.6459460809
 C        -7.1310079389        1.4654128112       -6.0817402910
 C        -8.2622407687        1.8936476013       -7.0554748979
 O        -9.0288175705        2.7971587991       -6.8146214755
 C        -8.5014868870        1.1405419967       -8.4937163577
 C        -8.0652825922        1.7465893430       -9.8273334396
 C        -6.8184514461        0.8534578093      -10.4444830341
 O        -6.6855388832       -0.2668178324      -10.0313506371
 C        -6.1134174615        1.4414116334      -11.7255478586
 C        -5.8463235318        3.0252171822      -11.9042498532
 O        -5.4574356292        3.6432119516      -10.9010287089
 C        -5.8277504452        3.6908204201      -13.2449427732
 C        -4.5386880425        0.8274560488      -11.6199948762
 C        -7.0570816106        0.5172881166      -12.8582587473
 C        -6.0185051686        2.5197634508       -6.2395247086
 C        -6.3075437307        0.2710369550       -6.5495233783
 C        -8.7544557352       -0.8250108612       -0.3863371368
 C       -11.2540514018       -0.2796091489       -0.4913169348
 C       -12.1150054442        6.3148598240        0.9861601756
 C        -9.8927833737        6.6276213766        2.2964148224
 C       -14.8312892628        2.4009837356        7.1780312039
 C       -15.4966307725        5.0473186397        7.5398839944
 C        -9.1776846079        6.5283345982        9.7933100833
 C        -9.4496026235        7.7965885364        7.6881958623
 H        -7.0102991751        6.4533616903        7.4118330802
 H        -7.0695904510        4.6975509136        6.8844612017
 H        -7.2140274704        5.1412152499        8.6475865087
 H       -12.1393401317        6.0861135594       10.4555715567
 H       -11.1001228542        4.7575995111       10.2353051286
 H       -14.0491683018        4.8036621851        9.7118457952
 H       -13.2329436506        3.4688335739        9.9780509292
 H       -13.4195302684        6.3395996091        5.7463739935
 H       -15.1064299705        6.2892308314        5.1982065456
 H       -14.0673131766        7.0651206093        3.4319259881
 H       -13.8429484714        5.2755265182        2.9533482504
 H       -10.3386448710        3.9239037408        0.3443469207
 H       -11.9405095316        3.3956044636        0.5411934561
 H       -11.5444183515        1.2740192835        1.5341858730
 H       -10.3030068446        1.8828735357        2.5531461149
 H       -10.3792081817       -0.3590021403       -3.5392153482
 H        -8.6707402272       -0.2105202352       -3.1063782250
 H        -9.6571999062        2.1486776109       -4.6550227115
 H        -9.6589765890        0.5643651145       -5.2949319870
 H        -9.5981000315        1.0364661188       -8.6483431319
 H        -8.2480466639        0.0699815948       -8.4584553678
 H        -7.7088723248        2.7747192566       -9.7531347330
 H        -8.9607402152        1.7611961621      -10.5220769239
 H        -6.5787280799        4.4369985800      -13.0882693925
 H        -5.8372436359        3.0136917644      -14.0236406067
 H        -4.9517090084        4.3294099097      -13.2529339700
 H        -4.4421304732       -0.2747227026      -11.6522070571
 H        -4.2551001801        1.1261432726      -10.6278137932
 H        -3.8018127076        1.1657873812      -12.4450352293
 H        -7.8476311822       -0.0196637044      -12.3049690639
 H        -6.4813892723       -0.2761417464      -13.3938042582
 H        -7.5779059746        0.9646741151      -13.6806643226
 H        -4.9752179839        2.1536530444       -5.8805586684
 H        -6.2180275524        3.4509085010       -5.6954510369
 H        -5.7678318102        2.7847768463       -7.2010453856
 H        -5.5125646569        0.5536320831       -7.1779241255
 H        -6.9314960659       -0.5147839646       -7.0188984819
 H        -5.6607251737       -0.0088711898       -5.6785474904
 H        -9.1796103635       -1.5924500890       -1.0964051038
 H        -8.7898768991       -1.2479111868        0.6442467917
 H        -7.8281158179       -0.5422599261       -0.7343620019
 H       -11.3048936418       -0.9007576425       -1.3815523096
 H       -12.0177501112        0.5280477192       -0.5905480174
 H       -11.5281904421       -0.6963102066        0.5083514050
 H       -11.6032506035        6.2639829656       -0.0191151718
 H       -12.6788978037        7.3103827013        1.0896498839
 H       -12.9948897507        5.7162165737        0.8483096219
 H        -9.8619058606        7.6847044761        2.0953995966
 H        -9.3351228491        6.0239314381        1.5706051462
 H        -9.3454797152        6.4491143402        3.2533090636
 H       -14.7588564640        2.2393559142        8.1790662426
 H       -14.1678520361        1.7916882700        6.6296253379
 H       -15.8075772378        2.0833020335        6.9267470112
 H       -15.8425197287        4.5775421760        8.4613140600
 H       -16.2133620910        5.0883971723        6.7282116009
 H       -15.1267310141        6.0692365255        7.6062257678
 H        -9.4691822418        5.5663306076       10.2843496480
 H        -9.7127142455        7.2040089290       10.4495695311
 H        -8.1249209522        6.6194214691        9.7506684478
 H        -9.0014241105        7.5546032888        6.7298487693
 H        -8.5479588633        8.1080122638        8.3425182453
 H       -10.3008525369        8.3668059395        7.6787571003
 Na      -11.0740808839        4.3574512660        5.5246222483
