117

 C        -7.1500669376        5.6538865716        7.6071353015
 C        -8.6245417293        5.4014290824        7.7009646661
 O        -9.0119321099        4.4005051014        7.2033353518
 C        -9.5700907540        6.5309897686        8.4079708297
 C       -11.0599045840        5.9228943194        8.5898174321
 O       -11.8199597476        6.0680818520        7.6261694957
 C       -11.7288895668        5.2433094055        9.8433629059
 C       -13.1850876427        4.9388744919        9.4197169933
 C       -13.2724700700        4.1859545443        8.0607041004
 O       -12.3355197131        3.5240476515        7.5710210488
 C       -14.5749107880        4.3716454197        7.0691963944
 C       -14.1033318385        4.6631937858        5.5835656599
 O       -13.4009323174        3.8758061403        4.9940917840
 C       -14.4455941904        6.0492484757        4.7489253616
 C       -13.7170724703        6.0915056865        3.4127870400
 C       -12.1553962750        6.2452649594        3.5544053298
 O       -11.6785613676        6.5950227108        4.5704326599
 C       -11.2227237174        5.8436138430        2.3329481403
 C       -10.9103026201        4.2468412437        2.4161649737
 O       -10.6341823106        3.6845197020        3.5164496442
 C       -10.8207855143        3.3871364003        1.2381607333
 C       -10.8876975566        1.8998133843        1.5161706784
 C        -9.5875340737        1.1710340939        0.7168269770
 O        -8.4401413034        1.3499534820        1.1857028371
 C        -9.8271098026        0.3472061647       -0.6301002029
 C        -9.5991431309        1.2505418152       -2.0322551547
 O        -9.5409955778        2.4615028082       -1.9911655223
 C        -9.4837247078        0.3305376462       -3.1937217028
 C        -9.2046245560        1.0065138194       -4.5517951617
 C        -7.6987374795        1.0325371414       -4.7040694027
 O        -7.0041973409        0.9075208455       -3.7291725774
 C        -7.1455341917        1.0178333533       -6.2024476941
 C        -8.1478198281        1.7544792760       -7.2067015217
 O        -8.2885684353        2.9623770790       -7.1270646837
 C        -8.6387479341        1.0153204659       -8.5965723350
 C        -7.7991858336        1.7277639789       -9.7262686192
 C        -6.8998131218        0.6573650571      -10.4665778286
 O        -6.4502319122       -0.2580848316       -9.8705413103
 C        -6.1392450324        1.1877441329      -11.8037645560
 C        -5.8280558349        2.6905451628      -11.5872991741
 O        -6.0264140042        3.4270467871      -10.6044430818
 C        -5.4888139503        3.3851154612      -12.9218811252
 C        -4.8138730333        0.4038768783      -12.0178208013
 C        -7.0678603999        1.0064452482      -13.1578719383
 C        -5.8638559648        1.9679624865       -6.0788511485
 C        -6.7894600536       -0.3404808711       -6.6725048951
 C        -9.0237493046       -0.9235274104       -0.5409827855
 C       -11.4296920778        0.0019050905       -0.6962459334
 C       -11.8286133362        6.0382950695        0.9448500600
 C        -9.8164000997        6.6264788915        2.5439712007
 C       -15.1826548727        2.9282380495        6.8153493914
 C       -15.6059457084        5.4030384858        7.7139233045
 C        -9.0396467776        6.8465721474        9.8752760103
 C        -9.5678512782        7.7768800089        7.5980249713
 H        -6.8598484006        6.6860452360        7.3960023438
 H        -6.7429996240        5.0229018214        6.8468171734
 H        -6.7595324474        5.4713817322        8.5009864510
 H       -11.7239591997        6.0247354221       10.6842831475
 H       -11.1540613684        4.3244566969       10.1296746013
 H       -13.7964786547        5.8711224061        9.4224294244
 H       -13.7458643085        4.4146675371       10.1864080933
 H       -14.1464449225        6.8990588508        5.4167467746
 H       -15.4632684986        6.1787070706        4.4498658363
 H       -13.9754428018        7.0507066004        2.8913872885
 H       -13.8122117420        5.2525995680        2.7679223559
 H        -9.7038729334        3.6862652698        0.7760680931
 H       -11.4016304668        3.6864660798        0.4288027261
 H       -11.8988860949        1.5100154392        1.1933490516
 H       -10.7366113622        1.7402043624        2.5391904580
 H       -10.4702324765       -0.0802899639       -3.1904210304
 H        -8.7357410044       -0.3704232288       -3.0596111338
 H        -9.5398903976        2.0389507356       -4.3673194070
 H        -9.5242565563        0.6711670035       -5.6063902781
 H        -9.6291506802        1.2860901422       -8.7600252528
 H        -8.6181405646       -0.1341241576       -8.6355416973
 H        -7.1995915456        2.4111459212       -9.1994039924
 H        -8.3260262287        2.3402890340      -10.5078925114
 H        -6.3127113017        4.1530082335      -12.9862612308
 H        -5.4855674711        2.6335484421      -13.6493295622
 H        -4.4898141869        3.9413317500      -12.9784845209
 H        -4.8877590208       -0.6498561759      -11.8610944125
 H        -3.8603211659        0.6490057589      -11.5929488759
 H        -4.7999982653        0.4242769981      -13.1118919258
 H        -7.4556458370        1.8902163651      -13.6723073211
 H        -7.9299927023        0.3360641659      -13.0025355126
 H        -6.6103448563        0.4435297874      -13.9276938058
 H        -5.3205125914        1.8610382939       -5.0524912112
 H        -6.2429755122        2.9758759164       -6.0473668215
 H        -5.1026776404        1.9822531486       -6.7327563847
 H        -6.5905921099       -0.2408989593       -7.6797025000
 H        -7.5649911019       -1.0440130974       -6.3200270250
 H        -5.7962608603       -0.5703189215       -6.2166519144
 H        -9.3786241053       -1.4747805340       -1.4211840142
 H        -9.3505176501       -1.3659163921        0.4839419046
 H        -7.9390664942       -0.8155439773       -0.6190139132
 H       -11.6935435527       -0.6906449046       -1.4840046139
 H       -12.0962882855        0.8484949541       -0.6708790200
 H       -11.6010865156       -0.7090375008        0.2069304112
 H       -11.1799483541        5.5412618007        0.1986782596
 H       -12.1324546960        7.0439783559        0.7949674388
 H       -12.8584361549        5.6438541025        0.7139577318
 H       -10.2974998054        7.5764354417        2.7278504236
 H        -9.2402466995        6.6145642219        1.6459206602
 H        -9.0864756327        6.4464812608        3.3477169556
 H       -14.2941031816        2.2857808595        6.5946311221
 H       -15.8467805451        2.9458481042        5.9120574594
 H       -15.8188662411        2.4939691077        7.7072355363
 H       -15.8465823542        4.9610426344        8.6663237521
 H       -16.4861436315        5.5073923249        7.0225759660
 H       -15.1867589226        6.3439393737        7.7950595852
 H        -8.5529624162        6.0468865285       10.4129550950
 H        -9.8689237238        7.2948553238       10.4743287908
 H        -8.3344091349        7.6856317863        9.6951234900
 H        -8.7159079716        7.8599060255        6.8270671734
 H        -9.4424448515        8.6167298563        8.4206698015
 H       -10.4298344247        7.6814069551        7.0003409788
 Na      -10.9904840963        4.7061969146        5.8321147000
