117

 C       -12.8956029932        7.6487661618       -5.1951454770
 C       -11.7959768277        7.6077863002       -6.2120591590
 O       -11.0986445933        8.4981233274       -6.6136432437
 C       -11.2814720393        6.1460346110       -6.5576887994
 C       -10.3647193566        5.6621124649       -5.4288872333
 O       -10.3377529334        4.4869464536       -5.0704473832
 C        -9.4362948907        6.6618517464       -4.6544788516
 C        -8.0680359865        5.9330272596       -4.5206044312
 C        -7.7273391600        5.6780717407       -3.0890190893
 O        -8.3190077529        6.2794519727       -2.2140698208
 C        -6.8507126443        4.3913231198       -2.6120533591
 C        -5.9426197788        4.7267892046       -1.4753270994
 O        -4.7327870576        4.4434005778       -1.5216583285
 C        -6.4637597542        5.4773539029       -0.1606362057
 C        -5.6363298706        5.0808063809        1.0931657833
 C        -6.4887904707        4.1013050881        2.0172273736
 O        -7.4726313494        3.5322156526        1.5648655057
 C        -5.9708012733        3.8256597192        3.4408443248
 C        -6.7163245105        4.9841298623        4.3534523449
 O        -6.5942929461        6.1190639651        3.9189194091
 C        -7.6719013727        4.6302675612        5.5284057080
 C        -8.9765415765        5.4427780370        5.1683336860
 C        -9.7875313453        4.5216073389        4.1469824754
 O        -9.5918360184        3.3178288090        4.1279491726
 C       -10.8785611065        5.3239771821        3.2264853589
 C       -11.9611696771        4.2804883967        2.8175589648
 O       -11.7060966937        3.1834816781        2.4038132406
 C       -13.4299398665        4.7152237924        3.0126486689
 C       -14.2995005004        3.6335439097        2.2768254626
 C       -13.8053833075        3.2739213456        0.8624549409
 O       -13.2573716433        4.0275315175        0.0955675863
 C       -14.1217494546        1.7830680637        0.3675263884
 C       -12.7536514203        1.0945201200        0.0545645423
 O       -12.1109695868        0.4947662559        0.9781406349
 C       -12.1627399942        1.2143432376       -1.3442051559
 C       -10.8539067721        0.4577428354       -1.4739220229
 C       -10.0924558355        0.4625650512       -0.0433368171
 O        -9.6763132939        1.5927292643        0.0942208520
 C        -9.4573587723       -0.8893773945        0.5602698006
 C        -9.8243231544       -0.9519804486        2.0924755003
 O        -9.7583419127        0.0234190626        2.7770038267
 C       -10.1370336129       -2.3615834064        2.5859129221
 C        -9.8274382272       -2.0841022088       -0.2938140710
 C        -7.8560579058       -0.6163231076        0.5742097755
 C       -15.0019025258        0.9792957754        1.4125001267
 C       -15.0953495148        1.9976140163       -0.9067089564
 C       -11.4012198993        6.5046401105        4.0746317207
 C       -10.2366363333        5.8407573230        1.9046909265
 C        -6.2142068804        2.3673684927        4.0420202151
 C        -4.4868499709        4.1288784501        3.7046549156
 C        -7.9030128508        3.4146917574       -2.0266141063
 C        -6.0962899914        3.7366313062       -3.8349681637
 C       -12.4124538573        5.0744834441       -6.6927696331
 C       -10.3904483989        6.1710260067       -7.8715412155
 H       -12.5893274547        7.2088981959       -4.2264310310
 H       -13.7633500251        7.0315645803       -5.4070630271
 H       -13.1819368241        8.6532756508       -5.0270233397
 H        -9.7858638533        6.7613044883       -3.6233308940
 H        -9.3337215962        7.6544023897       -5.2135805369
 H        -7.2312114620        6.4612223606       -4.9496270088
 H        -8.1459586606        4.9681037567       -5.0270805007
 H        -7.5332491239        5.3127917197       -0.1435347597
 H        -6.3694488591        6.5317770258       -0.2626424754
 H        -5.4077505280        6.0152459023        1.6351815428
 H        -4.7379311367        4.4387656131        0.8737103475
 H        -7.2703624263        5.0040310526        6.4530399352
 H        -7.9183885647        3.5606793994        5.5612016236
 H        -8.8473105722        6.2805924428        4.4607076158
 H        -9.4737883731        5.7955919215        6.0653711099
 H       -13.5832028066        5.7068751736        2.5323729657
 H       -13.7687226891        4.6677708812        4.1239521069
 H       -15.2976327716        3.9396611202        2.1152882838
 H       -14.3222497790        2.6929284758        2.8493151646
 H       -11.9461727307        2.2733980243       -1.3819672620
 H       -12.8827193363        1.0482334364       -2.1642283456
 H       -10.1715894056        1.1076388864       -2.1736089766
 H       -11.0485105129       -0.5676327545       -1.9720637164
 H       -10.0819440953       -2.5405524681        3.6552405284
 H        -9.5504141135       -3.1858520203        2.1797374281
 H       -11.2505649617       -2.4772348237        2.5128674770
 H        -9.3340670227       -2.0155744146       -1.3093698617
 H       -10.8449908831       -2.1235458156       -0.2897807181
 H        -9.4116790808       -2.9698154120        0.2077138823
 H        -7.6476253539        0.3244697718        1.1141426738
 H        -7.6314023744       -0.6113260920       -0.5163871102
 H        -7.3175741837       -1.3805280174        0.9528889851
 H       -14.4235728599        0.7040581557        2.2681819774
 H       -15.3853598846       -0.0184129959        0.9836610946
 H       -15.9101028328        1.5885205831        1.6159338719
 H       -14.8373607046        1.2120293209       -1.5478201193
 H       -14.9107850918        2.9849557737       -1.3856756072
 H       -16.0845690551        1.9831815786       -0.6417168145
 H       -10.6014939193        7.2183596846        4.3236153061
 H       -12.0058144901        6.0946432398        4.9150621269
 H       -12.0416403701        7.0773764614        3.3762960282
 H       -10.0389038570        6.8816881849        2.0168682641
 H       -11.0142860050        5.7396861262        1.1339395131
 H        -9.3357939668        5.3228946266        1.6768577443
 H        -6.0472552118        2.2476743539        5.1813546596
 H        -5.3766482169        1.7213939003        3.7423398354
 H        -7.0787199214        1.7835199453        3.6936175451
 H        -3.7942680075        3.3882076115        3.3649435573
 H        -4.2723163566        4.2508248605        4.8086053021
 H        -4.0332310256        5.0782677935        3.2227761546
 H        -8.8592077647        3.5801485878       -2.5189905076
 H        -8.0711625308        3.7799205467       -1.0088781450
 H        -7.5728242166        2.4396780388       -2.0340044473
 H        -6.7637724406        3.3050768155       -4.5513314077
 H        -5.3495471004        2.9404614006       -3.5858517716
 H        -5.3871803649        4.4352569378       -4.3320778642
 H       -12.3664272504        4.0803884376       -6.2237418703
 H       -12.5590105958        4.8065401326       -7.7360250596
 H       -13.2767689681        5.5522262951       -6.2799392458
 H        -9.4604186532        6.7747803383       -7.8443407833
 H       -11.0091809022        6.4023729967       -8.7251508446
 H       -10.1011647421        5.1255926092       -7.9377112002
 Na       -9.5937558118        2.3912712713        2.1914463981
