117

 C        -7.0628471926        5.5342506536        8.3978836529
 C        -8.4873140839        5.7644240814        7.8786822057
 O        -8.8745638153        5.1655554826        6.8698034490
 C        -9.3555978063        6.8658360524        8.5612855998
 C       -10.8710698072        6.4935101963        8.2813355013
 O       -11.4627567657        6.9395228347        7.3544296604
 C       -11.4346202862        5.4040589234        9.2375050401
 C       -12.9175847370        5.1544135835        9.1857464464
 C       -13.4100062919        4.4472613668        7.8272318020
 O       -12.8152112439        3.5304609385        7.4253060300
 C       -14.7851667406        4.9333481661        7.0634790122
 C       -14.1894254122        5.0716819662        5.5597746727
 O       -13.8124455293        4.0807533176        4.9941320719
 C       -14.5394699160        6.2656739284        4.5692606797
 C       -13.7415824920        6.0164260827        3.3010824126
 C       -12.2342448270        5.9883853629        3.5553609973
 O       -11.8568670626        6.2815616219        4.7530552187
 C       -11.1535057125        5.5998436169        2.5004517753
 C       -10.7118654649        4.0743033105        2.6322358638
 O       -10.6320109347        3.4621747424        3.6482991051
 C       -10.3607278240        3.4876464019        1.2785100676
 C       -10.7199675205        1.9224215410        1.3515316003
 C        -9.6999291576        1.2572850449        0.3551927377
 O        -8.4826443422        1.3365826386        0.6811809079
 C       -10.2007246241        0.2670605664       -0.8017775534
 C        -9.7235477562        1.0844800258       -1.9807298573
 O        -9.8711378377        2.2904676573       -1.8458727100
 C        -9.4770371841        0.2856440011       -3.2700884290
 C        -8.9741316863        1.1392874805       -4.3967938032
 C        -7.4924877304        0.7278655875       -4.7047958172
 O        -6.7465135407        0.6578453583       -3.7761523431
 C        -7.0610108195        0.3837218107       -6.1584945103
 C        -7.8098823152        1.3172553160       -7.1486671147
 O        -7.6563670925        2.5090332916       -7.1519507106
 C        -8.7076476094        0.7630484850       -8.3702373972
 C        -8.3375349320        1.5685219226       -9.6676883772
 C        -7.0659308448        0.8156461109      -10.4310283889
 O        -6.3641931061        0.1350097475       -9.7545302981
 C        -6.4166456196        1.1457951529      -11.8522198807
 C        -5.5750722136        2.3175324481      -11.5482613083
 O        -5.9334773527        3.0769976831      -10.6467368751
 C        -4.5061456730        2.8677959728      -12.5914050519
 C        -5.6336395664       -0.2577845813      -12.2272950723
 C        -7.4106846139        1.5926244269      -12.9106103825
 C        -5.5509573016        0.8535895707       -6.3426098734
 C        -7.2296811299       -1.1615269528       -6.4787070949
 C        -9.4614103717       -0.9905970012       -0.7139596029
 C       -11.7700582487        0.1789531279       -0.8834515711
 C       -11.6477285297        5.9674902627        1.0197430486
 C        -9.9486488693        6.5891634149        2.7875966702
 C       -16.0073615747        3.9890846961        6.9768371479
 C       -15.2636909858        6.2900594737        7.6884181775
 C        -9.0300640628        6.9370107260       10.0751374319
 C        -9.1034502947        8.1223603488        7.8165807583
 H        -6.5793553322        6.4733926022        8.8211935658
 H        -6.5258736395        5.0598201346        7.5425485705
 H        -7.0329400137        4.7504359006        9.1415017548
 H       -10.9694866391        5.4871911755       10.2030092090
 H       -11.0562647237        4.5052883292        8.6451522966
 H       -13.3583243922        6.0990899175        9.3985390004
 H       -13.2665516092        4.3740312097        9.8823238949
 H       -14.4222293114        7.2104868113        5.0878199666
 H       -15.6246599641        6.1705114365        4.4290498356
 H       -13.9465216813        6.5276298406        2.3311866376
 H       -13.8207100664        4.8677743176        3.0980882421
 H        -9.3189919904        3.5661991782        1.0482233753
 H       -10.9443003537        3.8787306214        0.5797641726
 H       -11.8364311172        1.9759071926        1.0426505660
 H       -10.6566198329        1.5673933934        2.3843379663
 H       -10.4812241725       -0.1775082108       -3.6096839414
 H        -8.7205980549       -0.5751481283       -3.0780435306
 H        -8.9562275639        2.2506900298       -4.1189941116
 H        -9.5587682403        0.8382935256       -5.2318609780
 H        -9.8080255821        0.9752094344       -8.3081912802
 H        -8.3990818176       -0.2444313222       -8.6395215399
 H        -7.9409077135        2.6118203420       -9.3977228039
 H        -9.1240363377        1.7581052200      -10.3888471799
 H        -3.9339740332        2.0401402121      -12.9956814134
 H        -3.8438478771        3.4959096184      -11.9826698219
 H        -5.0213408795        3.5864710539      -13.2065048430
 H        -6.2214887773       -1.1432489228      -11.9316404748
 H        -4.5684221191       -0.4236667419      -11.9423289295
 H        -5.4953330669       -0.2062384916      -13.2530458896
 H        -8.0855172606        0.7701802186      -13.1832228289
 H        -7.0560137167        2.0983911171      -13.7819505790
 H        -8.0410902237        2.3243024292      -12.3368734323
 H        -4.9878926229        0.5334680177       -5.4327578235
 H        -5.2796203349        1.9047789742       -6.3395475912
 H        -5.0539817088        0.5011471085       -7.2197734420
 H        -6.8184106380       -1.4248405244       -7.5035672094
 H        -8.3033583567       -1.3462723812       -6.5656782486
 H        -6.9047133281       -1.5885734864       -5.5767498346
 H        -9.4976431176       -1.6211963058       -1.6230993555
 H        -9.9519881836       -1.5490552072        0.1111154365
 H        -8.3927320016       -0.6656993967       -0.3439504929
 H       -12.1466383410       -0.4371105397       -1.7924450834
 H       -12.3610954917        1.1247603014       -0.8701153703
 H       -12.0472481375       -0.4696928144        0.0447832542
 H       -10.8739897951        5.8862495508        0.2561560800
 H       -11.6432726438        7.0597783693        1.1043948168
 H       -12.6736223854        5.5916936949        0.6470667719
 H       -10.2050575429        7.6828580967        2.6899993982
 H        -9.1767246352        6.4229115148        2.0056595720
 H        -9.4809592638        6.3823401949        3.7110356224
 H       -16.2372533327        3.9391648769        7.9947342904
 H       -15.7894098618        3.0649729145        6.6036765977
 H       -16.7641667676        4.4183963595        6.3394587706
 H       -15.6213340672        6.0996647405        8.6997981244
 H       -16.1922248197        6.5845030462        7.1591199184
 H       -14.4463420932        6.9413498011        7.6693284188
 H        -8.4134432831        6.2302708949       10.5464093799
 H       -10.0116523454        7.0828970169       10.5244655565
 H        -8.6082298455        7.9978114218       10.2871136869
 H        -8.1669526275        8.5356535222        8.1838543395
 H       -10.0019488580        8.7618713998        7.8804442702
 H        -8.9318462788        7.8662759073        6.7461225118
 Na      -10.9406281976        4.3842655382        5.9371691568
