117

 C        -7.1104662682        5.3831943094        8.4101177730
 C        -8.5500358575        5.7871471880        7.9422636254
 O        -8.8864191515        5.0866485982        7.0105338808
 C        -9.4040675924        6.8765343539        8.5820863149
 C       -10.9518088325        6.5209718064        8.4422868755
 O       -11.6590129134        7.0364476455        7.6187802430
 C       -11.4247582165        5.2791246681        9.3127290690
 C       -13.0115472368        5.3158070571        9.0340358292
 C       -13.3229762346        4.9439887259        7.6091929549
 O       -12.5982515212        4.1905382214        7.0054227616
 C       -14.6914103053        5.3232566521        7.0254407596
 C       -14.4989381804        5.0150110889        5.3609684221
 O       -14.3839607023        3.9744073555        4.8157453392
 C       -14.5467918857        6.3036984427        4.4807509382
 C       -13.7341260847        6.2486084634        3.1398310139
 C       -12.2171111780        6.0272795121        3.4903589707
 O       -11.8838049918        6.1923167856        4.7065627056
 C       -11.2002640539        5.6953996045        2.4051469491
 C       -10.6973643058        4.0643158715        2.6975190169
 O       -10.5421072855        3.6161960313        3.7931152822
 C       -10.0891727498        3.3507304515        1.4518208304
 C       -10.6338304686        1.8917135487        1.3327258108
 C        -9.7325919540        1.1575915923        0.3994270796
 O        -8.5646387297        1.0480996185        0.8381687679
 C       -10.3407228918        0.3816416439       -0.8721714110
 C        -9.9602929031        1.2287206390       -2.1628726369
 O       -10.1524792605        2.4298886733       -2.2700260459
 C        -9.1989217907        0.2804467398       -3.2169413087
 C        -8.7579598157        0.9926508456       -4.5153544940
 C        -7.3696504619        0.5111990064       -4.7968841093
 O        -6.5824072933        0.4502607500       -3.8860720169
 C        -6.9400641389        0.2187646740       -6.3168280190
 C        -7.7448374695        1.2244345951       -7.2123772898
 O        -7.5837150994        2.4482392118       -7.1089959489
 C        -8.7871248281        0.8041256854       -8.1864798173
 C        -8.3950124368        1.2337810020       -9.6369547015
 C        -7.0524735920        0.7154060466      -10.1949785088
 O        -6.2224459077       -0.0229330179       -9.7223277488
 C        -6.5827762446        1.0791331011      -11.7112880458
 C        -5.5497138780        2.2735235500      -11.4220966018
 O        -5.7478129904        3.1798234370      -10.6717426129
 C        -4.1820632278        2.1613289537      -12.3198453622
 C        -5.8320568006       -0.0091157907      -12.3552674891
 C        -7.8149355058        1.7817408371      -12.4853725440
 C        -5.4636541570        0.0244000453       -6.4880209990
 C        -7.5011926292       -1.2784189522       -6.5780372839
 C        -9.7945884161       -1.0513097637       -0.7944866052
 C       -11.8201538060        0.1547316093       -0.7536189441
 C       -11.5974320656        6.1560324835        0.9616155698
 C        -9.8404613844        6.5268809730        2.8114428830
 C       -15.5750252479        4.2837114933        7.6844840010
 C       -15.1498464751        6.7218370021        7.2521077152
 C        -9.0067626737        7.0837996522       10.1136277076
 C        -9.0774672149        8.2066326694        7.8322188435
 H        -6.5229913118        6.1792093859        8.7401674572
 H        -6.7119695879        4.8071415177        7.6471870666
 H        -7.1920793510        4.6549090186        9.2086004051
 H       -11.2351372758        5.3970846440       10.3896068024
 H       -10.9057833355        4.3500247317        8.9429757387
 H       -13.2427189455        6.3268104171        9.2506064446
 H       -13.4341212418        4.5815007046        9.7247030960
 H       -14.0290987526        7.0067747364        5.0573243766
 H       -15.5916643990        6.7359294309        4.4139341850
 H       -13.9141972710        7.1001194314        2.4851049740
 H       -13.9247615399        5.4093360881        2.4395690248
 H        -8.9858262086        3.2613612369        1.6027278401
 H       -10.4250119029        3.7908924210        0.5443099185
 H       -11.6578961301        2.0110472930        1.1673524412
 H       -10.6089893299        1.4019380450        2.3074106334
 H        -9.8840921643       -0.4776833613       -3.3204615765
 H        -8.2687116477       -0.0135856342       -2.7550638338
 H        -8.6189307161        2.0884519263       -4.3350382569
 H        -9.4011732438        0.6759481587       -5.3221047209
 H        -9.7336460234        1.4066063193       -8.0104317985
 H        -8.9717905194       -0.1891374677       -8.2217115589
 H        -8.1986516351        2.2822046596       -9.6801770312
 H        -9.0790403663        1.0662395940      -10.4318849952
 H        -3.3515168759        1.9414272632      -11.6408134466
 H        -4.0389494337        3.2671272109      -12.5716117910
 H        -4.3500397405        1.7965619586      -13.2827473854
 H        -6.5164802636       -0.6983798549      -12.8236635870
 H        -5.3164644742       -0.6277947522      -11.6062045494
 H        -5.0560955417        0.2504800542      -13.0125939656
 H        -8.1114262816        2.5986534999      -11.7913364281
 H        -8.6289647062        1.0928784872      -12.5440348942
 H        -7.6483422324        2.3000762161      -13.4652406182
 H        -5.0925602025       -0.7179674152       -5.8300377031
 H        -4.7331601043        0.8082776762       -6.3542553867
 H        -5.3108409154       -0.2579681536       -7.5499439616
 H        -7.4633789634       -1.4633834294       -7.7065835238
 H        -8.5327635600       -1.1866349865       -6.3954872541
 H        -7.0204772423       -1.9958605289       -5.9512616519
 H       -10.2876663542       -1.4997343066       -1.6079516190
 H       -10.0603451336       -1.6068149400        0.0382239244
 H        -8.7351376262       -0.8539747929       -1.0641523167
 H       -12.1306764739       -0.3690431321       -1.6116931522
 H       -12.3564416244        1.0386334634       -0.7096677834
 H       -12.0860535366       -0.3615037429        0.1016447691
 H       -10.7263046759        6.4482976446        0.4275483361
 H       -11.9642315226        7.1737164840        0.9568829955
 H       -12.2438451502        5.3633970200        0.5872227910
 H        -9.9948008180        7.6119616722        2.7681893336
 H        -9.1082525360        6.4761324605        1.9559469338
 H        -9.4332414879        6.2694960397        3.7931506196
 H       -15.5330347015        3.2993140015        7.0791384844
 H       -16.5699731216        4.7623629027        7.6683252860
 H       -15.3474480058        4.2492377349        8.8612278950
 H       -15.4965664415        6.9427301880        8.2812943920
 H       -15.8686597475        6.9706280486        6.4849782085
 H       -14.1864323814        7.2636618930        7.0979089190
 H        -9.4345468118        6.2273083771       10.6087200828
 H        -9.3485136589        7.9790007365       10.5997600498
 H        -7.9085113270        6.9470428771       10.2359921134
 H        -8.0782300707        8.2006806249        7.2893532953
 H        -9.0881119946        9.0799096520        8.5162460747
 H        -9.9752810001        8.5896741728        7.2493119864
 Na      -10.7791870815        4.4032759251        5.9381943785
