117

 C        -7.0452994240        5.4494129278        8.4880117674
 C        -8.5690547738        5.7063209588        7.9504834181
 O        -9.0189387618        5.0337744391        7.0045322779
 C        -9.3679037038        6.7959686729        8.6523340268
 C       -10.8471970620        6.4916963731        8.4618293360
 O       -11.5445614376        7.1278690481        7.7192224138
 C       -11.5273915251        5.4746813944        9.3714365359
 C       -13.0520864286        5.3055128988        9.0994326460
 C       -13.1937380565        5.0222059626        7.5625765344
 O       -12.3859914422        4.3523970046        6.9758771001
 C       -14.6885381136        5.3627033814        6.8638317363
 C       -14.6498958880        5.1221978217        5.2450927303
 O       -14.6754984935        3.9615442272        4.7974026366
 C       -14.5900828806        6.4140457700        4.3571224579
 C       -13.6720483549        6.2239273318        3.2208127303
 C       -12.2138438894        6.0241252677        3.5280215932
 O       -11.8162630599        6.3471603836        4.7297670962
 C       -11.1152768485        5.6689793465        2.5153179391
 C       -10.6768641716        4.2839980530        2.7309985027
 O       -10.6428832805        3.6600897973        3.7568950261
 C       -10.1387012409        3.5616820173        1.4193097258
 C       -10.7463172514        2.0394363006        1.3380787716
 C        -9.7524999676        1.0113859401        0.4430432968
 O        -8.5581665160        0.8490574112        0.6966097658
 C       -10.3695494929        0.2994672320       -0.8381277627
 C       -10.0691528455        1.0646965225       -2.1773255589
 O       -10.2818151627        2.2275155845       -2.3581906087
 C        -9.3013858593        0.2289969755       -3.2593298131
 C        -8.6141856366        1.0360116982       -4.3812674736
 C        -7.1447293641        0.4248412777       -4.7422999779
 O        -6.2463511640        0.3705198109       -3.9847144951
 C        -6.9775231981        0.0332901925       -6.3153393245
 C        -7.6655046831        1.2496799323       -7.1243171765
 O        -7.3956627156        2.4000904482       -7.0398571735
 C        -8.8043518000        0.7077920283       -8.1627819026
 C        -8.4395247700        1.0972196989       -9.6328544178
 C        -6.9937701271        0.6188988287      -10.2167790142
 O        -6.3662438978       -0.1317135223       -9.5447461711
 C        -6.5591118670        1.1255153673      -11.6395271249
 C        -5.4649428118        2.2561920863      -11.5104955755
 O        -5.7487433857        3.2112567557      -10.7727162544
 C        -4.0815897410        2.1881500883      -12.1387923276
 C        -6.1662879946       -0.1098340745      -12.4543682097
 C        -7.6602328881        1.8986194414      -12.5171353220
 C        -5.5093352580       -0.0651297167       -6.6528649739
 C        -7.7153860252       -1.3388829631       -6.6395019275
 C        -9.7180720487       -1.2237101117       -0.8828540459
 C       -11.9824866983        0.4206995814       -0.6433964031
 C       -11.4115748012        5.9395544970        1.0411695804
 C       -10.0315921531        6.6725980872        2.7824268753
 C       -15.6135310840        4.3981715953        7.7094931946
 C       -15.1405784738        6.8795455356        7.1420206940
 C        -9.0083127834        7.0185084644       10.1565547319
 C        -9.1422848912        8.1754877664        7.7475404306
 H        -6.6750352194        6.4663375841        8.6127640145
 H        -6.4167171135        4.8371190790        7.8579176949
 H        -6.9711992652        5.0181090447        9.3811041455
 H       -11.3580993255        5.6194613435       10.4547470828
 H       -11.0752630718        4.4320309655        9.0980601647
 H       -13.5335023983        6.1927138217        9.3826993396
 H       -13.2011951743        4.4521344076        9.7233508251
 H       -14.2966573303        7.2516617105        5.0107976547
 H       -15.5351389623        6.7068259621        3.9312269718
 H       -13.8298913614        7.0845844102        2.4901672963
 H       -14.0059327838        5.3757505389        2.5034039737
 H        -9.1570889061        3.4865214176        1.6360042899
 H       -10.4124280549        4.0029557978        0.5550973242
 H       -11.8584744046        2.2606164944        1.1291599544
 H       -10.8859874161        1.6470941317        2.2923430097
 H        -9.9929922285       -0.6359288370       -3.5233232431
 H        -8.4195385175       -0.0958836386       -2.6788817689
 H        -8.4776309437        2.1210049712       -4.0640815299
 H        -9.2485614970        0.8289426963       -5.2414346611
 H        -9.7182957331        1.3119517057       -7.9940923870
 H        -9.2097277125       -0.3390507943       -8.3476411797
 H        -8.3352673943        2.1950231587       -9.7836763598
 H        -9.1195981178        0.7979457068      -10.3781398267
 H        -3.4947811964        1.7372344206      -11.3402910533
 H        -3.7047313569        3.1777821743      -12.1919827599
 H        -4.2393577003        1.8599910104      -13.2063723707
 H        -7.0021569120       -0.7351247137      -12.7474595314
 H        -5.5034064324       -0.7530446116      -11.8730653130
 H        -5.5980937183        0.1261973046      -13.3163382378
 H        -7.2808524203        2.8873548762      -12.7794067292
 H        -8.6571378142        1.9718206576      -12.0919855581
 H        -7.6921190199        1.4296509237      -13.5200685768
 H        -4.7822069826       -0.7869997735       -6.1048312128
 H        -5.1270307686        0.8781196371       -6.2880225423
 H        -5.2734608136       -0.0164821109       -7.6196073475
 H        -7.6798795255       -1.3547667636       -7.7285539045
 H        -8.7786210455       -1.4471736667       -6.3177100069
 H        -7.0237547512       -2.0932653676       -6.3323574188
 H       -10.0703919051       -1.5784514810       -1.8717630436
 H       -10.1956820373       -1.9638875886       -0.1604406458
 H        -8.6661675377       -1.0192138406       -0.9338380790
 H       -12.5434969646       -0.0671435863       -1.3869482838
 H       -12.2325532505        1.4288101453       -0.7128572827
 H       -12.3710628631        0.1656186080        0.3967541753
 H       -10.5294470037        5.9190872449        0.4144237918
 H       -11.4902901668        6.9905638843        1.0082189079
 H       -12.3400492736        5.3018747433        0.8039731931
 H       -10.0487722902        7.6936264669        2.3447334864
 H        -9.1324031116        6.3078100583        2.2529593167
 H        -9.8635401617        6.6590264374        3.8490616751
 H       -16.1420378293        3.8514949391        6.9852484093
 H       -16.2667860417        5.0044286772        8.4633183408
 H       -15.0302746378        3.7690762638        8.3159042643
 H       -15.2282247237        6.7871535040        8.2349307689
 H       -16.1027714513        7.1730024044        6.5867557075
 H       -14.4010339046        7.5703383330        7.0630343926
 H        -9.8017016158        6.6785255088       10.7551261625
 H        -8.9686630822        8.0883126182       10.3681789334
 H        -8.0348191896        6.5188051458       10.4944865175
 H        -8.1435354540        8.0048304597        7.1981787250
 H        -9.1668533738        9.2711688632        8.2029695313
 H       -10.0098038950        8.3202267632        7.1422393732
 Na      -10.6034784892        4.4525386807        5.9890325938
