117

 C        -7.0202430603        5.5392807715        8.4787130871
 C        -8.4870104346        5.7540310345        8.0781328095
 O        -8.8018376735        5.0197879631        7.1706492103
 C        -9.3162096112        6.8135182998        8.7027002459
 C       -10.9136857603        6.6004436950        8.5682577009
 O       -11.5842000042        7.1931465085        7.7244362729
 C       -11.6494936400        5.4945273332        9.4699608951
 C       -13.0978244312        5.3156873967        8.9943025877
 C       -13.2663381838        5.1571864661        7.5249390727
 O       -12.4086673795        4.4761891585        6.9473684878
 C       -14.6030423141        5.3907626528        6.9102486353
 C       -14.7227097183        5.2547554941        5.3426092939
 O       -14.9827955852        4.1522665938        4.8968054621
 C       -14.6290386780        6.3673433952        4.3028192456
 C       -13.6644946412        6.1096167751        3.1459278119
 C       -12.1553048714        6.1924274229        3.6291649999
 O       -11.8522525702        6.3299403770        4.7972730227
 C       -10.9752079083        5.8400585256        2.5498496592
 C       -10.5532411420        4.2328601854        2.6528531188
 O       -10.7209202452        3.7338236005        3.7414472500
 C        -9.9781434050        3.4135724046        1.4347915838
 C       -10.5540234731        1.9524329734        1.2760126271
 C        -9.8216682272        1.0566203844        0.4058425926
 O        -8.7035990701        0.7676367233        0.6361576120
 C       -10.4866438723        0.3004457580       -0.7782305919
 C        -9.9554267977        0.9222394904       -2.1469258413
 O       -10.4878623417        1.9867989623       -2.3703892920
 C        -9.1413124035        0.1448371889       -3.3006539440
 C        -8.3513341481        1.0271417429       -4.2376049385
 C        -7.1038540398        0.3880489271       -4.8449186856
 O        -6.1029393232        0.2794702987       -4.1197771533
 C        -7.0515511864       -0.0319411204       -6.3328426281
 C        -7.6685950520        1.0698230892       -7.2348549750
 O        -7.2110625524        2.1435283042       -6.9224953787
 C        -8.7301503633        0.8914868956       -8.2701140390
 C        -8.4941000088        1.1857251901       -9.7027457504
 C        -7.0873954860        0.5878599127      -10.2390654530
 O        -6.5022095329       -0.2221632471       -9.5192309883
 C        -6.5658903270        1.1655842571      -11.6488016871
 C        -5.3627261364        2.2463890150      -11.3510868799
 O        -5.7454856412        3.2738086565      -10.8576062543
 C        -3.9578486576        2.1423815286      -11.9519354205
 C        -6.4497638598       -0.2987715596      -12.5029732825
 C        -7.5568825001        1.9562096767      -12.5132892060
 C        -5.5506121111       -0.0411202242       -6.7133628452
 C        -7.7157023543       -1.4198476855       -6.4959860954
 C       -10.0061677356       -1.1787322862       -0.7380364851
 C       -12.0484106378        0.3798265867       -0.7245635918
 C       -11.6620992774        5.9509815083        0.9893216983
 C        -9.8002255942        6.8740137908        2.8904254152
 C       -15.7316395980        4.4501401517        7.5121486889
 C       -15.0319471316        6.9579893260        7.1581365934
 C        -8.9449004024        7.0839601433       10.1154756416
 C        -8.9949010743        8.0128850129        7.7830444467
 H        -6.5399186183        6.5171461335        8.5508504351
 H        -6.5049621704        4.8029195931        7.8372085923
 H        -6.9203848940        5.1069322529        9.5385092749
 H       -11.7358497708        5.8329656980       10.5366275770
 H       -11.0808740324        4.5628433362        9.4771261441
 H       -13.5837980119        6.2421766039        9.3444773133
 H       -13.3616335310        4.4229024332        9.5188853512
 H       -14.5664438190        7.4200959792        4.7258360676
 H       -15.5490964407        6.3630509319        3.7798898397
 H       -13.9682194808        6.8926351050        2.3664636644
 H       -13.8839404932        5.2072845922        2.5253253513
 H        -8.9645365793        3.3207890230        1.7113288171
 H       -10.3220791460        4.0649332572        0.4422869224
 H       -11.6267293255        2.1369341101        1.0938602684
 H       -10.6644332398        1.4541981910        2.2568547452
 H       -10.1523005877       -0.3541236392       -3.6916051135
 H        -8.4952727624       -0.6199217282       -2.7490295600
 H        -7.9890609692        1.8928414510       -3.7089079536
 H        -9.1671751189        1.2131256535       -5.0119044468
 H        -9.5692344203        1.5047494927       -7.9579713839
 H        -9.2106478473       -0.1400362612       -8.4873953489
 H        -8.5255949597        2.2032849598      -10.1285053471
 H        -9.1974278720        0.5821406862      -10.3071930316
 H        -3.5096934440        1.3439174624      -11.4081493072
 H        -3.3534642205        2.9826118884      -11.7360274682
 H        -4.2532781453        2.0854807110      -13.0021800506
 H        -7.2940310163       -0.9660346689      -12.3938705200
 H        -5.5786230465       -0.8565023667      -12.2579140113
 H        -6.3314369185       -0.1137878129      -13.6170995979
 H        -7.1189414890        2.1179635424      -13.4832007648
 H        -8.0120756828        2.8919060276      -12.0630981029
 H        -8.3186070699        1.2469126810      -12.7477334894
 H        -4.9043797328       -0.7866234481       -6.2617469489
 H        -5.1135606594        0.9002358611       -6.3481453774
 H        -5.2874240949        0.0032717781       -7.8296891656
 H        -7.4229848641       -1.7561809679       -7.4568381146
 H        -8.8316055439       -1.4559356103       -6.3753331611
 H        -7.0626517246       -2.0830746799       -5.8597473256
 H       -10.2850009402       -1.7513235791       -1.7000655599
 H       -10.6327367362       -1.6174437831        0.1019544618
 H        -8.9444715309       -1.0578954128       -0.6357871006
 H       -12.5612986003       -0.3797021586       -1.3728359379
 H       -12.3714928195        1.4288607568       -1.1085884720
 H       -12.4988107714        0.4037983306        0.2909359802
 H       -10.7751312522        5.9456124837        0.2790509227
 H       -12.1577739593        6.9476062663        0.7812935940
 H       -12.2788695915        5.0933462483        0.9603902137
 H        -9.7561206334        7.8235627547        2.3848033396
 H        -8.8532340972        6.4694799203        2.6175066608
 H        -9.8091076831        6.9518555408        4.0099917918
 H       -16.5760839084        4.6564519435        6.9059645703
 H       -15.8261795018        4.5423956398        8.5276135999
 H       -15.4664643085        3.4792055918        7.2824652553
 H       -15.0317199912        6.9931948442        8.2130943553
 H       -16.0409284722        7.0141482376        6.7730070943
 H       -14.3955128268        7.8142185047        6.8638463160
 H        -9.8807517119        7.1376547428       10.7535313160
 H        -8.5276129012        8.1102394010       10.2190652190
 H        -8.2584737607        6.3900013378       10.4883431097
 H        -7.9606818273        7.9207775927        7.5009883414
 H        -9.1791998317        9.0055633149        8.1452331645
 H        -9.7302408917        8.0170114231        6.9792921046
 Na      -10.5467751645        4.5434662680        5.7508803978
