117

 C        -6.9067516932        5.6307377986        8.5851459191
 C        -8.3798956200        5.6026452084        8.1324086764
 O        -8.7356834010        4.9286553503        7.2119050091
 C        -9.3043169828        6.8622508951        8.7077583462
 C       -10.9564016870        6.5944954943        8.5639110606
 O       -11.6079812044        7.2300804545        7.7648486058
 C       -11.6487299195        5.5862646814        9.5312374642
 C       -13.1690021512        5.3833225689        9.0962745611
 C       -13.3347207768        5.0596184410        7.4962476580
 O       -12.4672714409        4.5495642295        6.8183355436
 C       -14.7318999715        5.4940124042        6.8669588937
 C       -14.7886290060        5.2599143772        5.2703582671
 O       -15.1754954269        4.1992731153        4.9590235746
 C       -14.6177218753        6.4472489414        4.2713976269
 C       -13.5465722468        6.0357049070        3.1266798823
 C       -12.1479288662        6.1149594350        3.6149477715
 O       -11.8798854345        6.3038695400        4.7154770252
 C       -10.9687540742        5.8565819606        2.5612589553
 C       -10.4775114131        4.3145250960        2.5612040705
 O       -10.7016614297        3.7102627197        3.6201330198
 C        -9.8668097826        3.4299653213        1.5150335206
 C       -10.5915483910        2.0939975612        1.4242965918
 C        -9.7760424608        1.0191026344        0.3846381774
 O        -8.6134355539        0.7582724856        0.6160286981
 C       -10.5785268837        0.1603495092       -0.7921438681
 C       -10.1302927357        0.8330635668       -2.2902860029
 O       -10.5245843075        1.9519743845       -2.5657644256
 C        -9.0576943970        0.1032264167       -3.1941357329
 C        -8.2424392516        1.1241602350       -4.0550699990
 C        -7.0831738409        0.3562939945       -4.8259291230
 O        -6.0407162174        0.1501386466       -4.2206898419
 C        -6.9704925179       -0.1290447751       -6.3590703402
 C        -7.6337805132        1.0641434551       -7.2665958300
 O        -7.1370667746        2.1826932517       -6.9764019612
 C        -8.8171608764        0.9156460441       -8.2659955285
 C        -8.4865030372        1.2991550896       -9.7372177567
 C        -7.1815170555        0.7075862296      -10.3098914145
 O        -6.6365645245       -0.2190284392       -9.7306438834
 C        -6.6466699728        1.1418594469      -11.6610071952
 C        -5.4444345062        2.1323881378      -11.3621106753
 O        -5.7255782826        3.1752302423      -10.8876836210
 C        -3.9016575681        1.9023636153      -11.8079776735
 C        -6.3478538512       -0.2146216389      -12.3719418990
 C        -7.6168832550        1.9558122798      -12.4288016432
 C        -5.5101572148       -0.1602793814       -6.7493395959
 C        -7.6612473220       -1.6328922223       -6.3633550914
 C       -10.3411278492       -1.3521907493       -0.5004174168
 C       -12.0601884093        0.2681027216       -0.8922676152
 C       -11.6740306634        6.1376891198        1.1335923544
 C        -9.7673555166        6.7725770345        2.7677304341
 C       -15.7749620482        4.6398402114        7.3752489499
 C       -14.9999584916        7.0528527989        7.2937834783
 C        -8.9307267806        7.2354974863       10.2697414467
 C        -8.8522060956        8.0292745287        7.7668141409
 H        -6.5773623885        6.6845081407        8.7080076839
 H        -6.2087138687        4.9746123105        8.0019620146
 H        -6.8503584631        5.2109126983        9.6893574389
 H       -11.5087804877        5.9887071967       10.5419374797
 H       -11.1214090347        4.6790257725        9.5516419598
 H       -13.6575236048        6.3635611252        9.3137201561
 H       -13.4959786011        4.5308528443        9.7310065180
 H       -14.4118827898        7.3520146821        4.8072643809
 H       -15.6051532930        6.5991018501        3.7487845807
 H       -13.7411382068        6.5227136945        2.1891384025
 H       -13.7298142662        5.0386841572        2.7763972396
 H        -8.8431167371        3.0201976603        2.0585456946
 H        -9.8600105183        3.8943526614        0.5349192137
 H       -11.5946219306        2.2625112212        1.2595999710
 H       -10.6703690035        1.6230160188        2.4764949125
 H        -9.7742955107       -0.6024628090       -3.6162344477
 H        -8.4378811228       -0.4262902122       -2.4039794722
 H        -7.7087129687        1.7658914677       -3.3669796299
 H        -9.1054301260        1.6214697711       -4.5459726699
 H        -9.5543499149        1.6930484761       -7.9861877333
 H        -9.3512414664        0.0516131775       -8.2666110624
 H        -8.2195382349        2.3437536472       -9.7917521788
 H        -9.2422064151        1.1068335195      -10.5589801907
 H        -3.6474335142        0.9291111817      -11.4574348078
 H        -3.2455326485        2.5249797946      -11.1629343651
 H        -3.8999026411        2.1410340358      -12.8055491975
 H        -7.1363803799       -0.9573666656      -12.1905492534
 H        -5.3774054286       -0.7312618605      -12.2635741216
 H        -6.4673998946       -0.0320115521      -13.4707152890
 H        -7.8990138257        1.6036295136      -13.4184256533
 H        -7.1845595003        2.9460909599      -12.4627771302
 H        -8.5540570210        2.1325444819      -11.9149834423
 H        -5.0207713283       -0.9242915056       -6.2402636682
 H        -4.8454770360        0.7364419844       -6.6256173286
 H        -5.3734844385       -0.4822053656       -7.8362273792
 H        -7.3666724843       -2.4109005995       -7.1414019627
 H        -8.7023622979       -1.3501175975       -6.3569663614
 H        -7.3296472749       -2.1341820151       -5.4318636936
 H       -10.7970194538       -2.0955279977       -1.1536888578
 H       -10.8210604128       -1.3865189052        0.4259600465
 H        -9.2209540845       -1.3840241689       -0.3932667670
 H       -12.4563859575       -0.5624128518       -1.6027963955
 H       -12.4139866109        1.2771886562       -1.3252816178
 H       -12.6219319061        0.2412125591        0.0435038481
 H       -10.8298119835        6.4006836607        0.4583145203
 H       -12.3945878875        7.0104266917        1.1288769498
 H       -12.1416489067        5.2339454469        0.8708377177
 H        -9.8636463869        7.7000391743        2.2663513267
 H        -8.8011200159        6.3947557499        2.4427257912
 H        -9.6911921875        6.9252979554        3.8547388225
 H       -16.7351634622        5.0348164015        7.5866133207
 H       -15.3441917523        4.1396485138        8.1656264132
 H       -15.8886755165        3.8183352280        6.6087555221
 H       -15.0744127539        7.1975810425        8.3716892667
 H       -15.8862481748        7.3225871527        6.8072096093
 H       -14.1611993558        7.7583050697        6.9347919817
 H        -9.6850850664        7.7686924202       10.9076439731
 H        -8.0506109269        7.8699484378       10.3032148267
 H        -8.6401212099        6.2942012917       10.6779300561
 H        -7.8749886420        8.2522776718        7.9860864758
 H        -9.3558057569        8.8783389830        7.9975248244
 H        -9.1025779046        7.9830732605        6.7090578804
 Na      -10.5269783398        4.7201536036        5.5744849951
