117

 C        -7.0022663666        5.5589908362        8.8443299516
 C        -8.3765189703        5.6794618643        8.2585562374
 O        -8.7717033703        4.8747834131        7.3817652471
 C        -9.2374634539        6.9514512090        8.7431787257
 C       -10.8016529625        6.6355137621        8.4001419493
 O       -11.4045991969        7.3893736315        7.6677973076
 C       -11.5715512152        5.4552058160        9.2388416853
 C       -13.0762969305        5.4405817860        8.9438388594
 C       -13.4435521576        5.0920588859        7.4729856545
 O       -12.6449558753        4.6422590704        6.6983511331
 C       -14.7869703263        5.6529528760        6.8957546282
 C       -14.9285908424        5.4053946896        5.4093204384
 O       -15.2222568419        4.3372007589        4.8443365832
 C       -14.3164192085        6.5399709421        4.4147686284
 C       -13.6340843285        5.9649965598        3.2362562298
 C       -12.1054781182        6.0524290433        3.2860003564
 O       -11.7338885215        6.3945643565        4.4800873543
 C       -11.0063777005        5.7070136848        2.2960431009
 C       -10.5375327373        4.1995584500        2.5461006987
 O       -10.5509174008        3.6928728539        3.6160639258
 C        -9.9290521942        3.4396647559        1.3438706630
 C       -10.7705444494        2.1593713160        0.9978860883
 C        -9.8929269058        1.1896908470        0.1800848010
 O        -8.7630158944        0.8155874820        0.3783075307
 C       -10.6580244782        0.2512980692       -0.7970880703
 C       -10.0058116532        0.6001178038       -2.1540186556
 O       -10.5572748037        1.5091107806       -2.7253606733
 C        -8.6823383547       -0.0014848755       -2.8530547600
 C        -8.1207720733        0.8739655647       -3.9485978480
 C        -6.8595447902        0.2321831220       -4.6500226421
 O        -5.8848213222       -0.1027176855       -3.9825169443
 C        -7.0350092858       -0.1457296153       -6.1570961975
 C        -7.5686225285        1.0602741036       -7.1311323618
 O        -7.0872671195        2.1359434575       -7.1157753509
 C        -8.7074467543        0.7063788336       -8.2515584358
 C        -8.2970099110        1.5647905994       -9.4007234574
 C        -7.4285887901        0.7239029861      -10.3241060392
 O        -6.9566382064       -0.2731477628       -9.8238893081
 C        -6.7445239069        1.1376197534      -11.6804490081
 C        -5.4261199985        2.0346664246      -11.2754093895
 O        -5.5782255598        3.1743610834      -10.8238108920
 C        -4.1241639454        1.3330128728      -11.3992091619
 C        -6.3275368737       -0.0445547808      -12.5703523446
 C        -7.7158992475        1.9157686114      -12.5517551294
 C        -5.5511365694       -0.4354241238       -6.8103688790
 C        -7.9526622067       -1.3281727055       -6.2985058647
 C       -10.3680184319       -1.2409789618       -0.5013474360
 C       -12.1795735610        0.5374349015       -0.8397173051
 C       -11.3658412295        6.1270978052        0.8201922296
 C        -9.6749737242        6.4658753460        2.8069260795
 C       -15.9546630054        4.8745813333        7.8129244113
 C       -15.0138256350        7.1415500991        7.1699950682
 C        -9.1080847307        7.1937397666       10.2622286733
 C        -8.8832621091        8.1550174015        7.8022029406
 H        -6.5616805694        6.5287173614        8.8508069331
 H        -6.4871325101        4.9331812095        8.1672455144
 H        -6.8777118260        5.1846469069        9.8191636560
 H       -11.3549825084        5.6849200321       10.2870320469
 H       -11.0688110201        4.4344227894        9.1808278816
 H       -13.3402366226        6.4676541811        9.1408146938
 H       -13.5735826753        4.7460892009        9.6286524393
 H       -13.7128801647        7.3575216622        4.9202295046
 H       -15.2201073066        7.0063367869        4.1030508506
 H       -14.0437808506        6.2183607525        2.2519248604
 H       -13.9581233283        4.8942122818        3.2463625285
 H        -9.1093380750        3.0078996234        1.5481350180
 H        -9.9161287707        4.0564118955        0.3885770916
 H       -11.7872926189        2.4185370471        0.4794435055
 H       -11.0927005969        1.6962463834        1.8558994426
 H        -9.1166357508       -0.9692843344       -3.2017025105
 H        -8.0495546575       -0.2833337096       -2.0875569400
 H        -7.8614198350        1.9283947928       -3.6184528151
 H        -9.0094117067        0.9645206782       -4.5976839843
 H        -9.7357917968        0.9383938170       -8.1263076433
 H        -8.7743304513       -0.4471360072       -8.5182646854
 H        -7.6468628638        2.3380288154       -8.9473926203
 H        -9.0030085529        2.0152354733      -10.0143443292
 H        -4.2893686506        0.2419855897      -11.2857800003
 H        -3.5879718809        1.6057922243      -10.5312472587
 H        -3.7224804939        1.7409143912      -12.4058070795
 H        -7.0872709444       -0.3138281184      -13.3430431464
 H        -6.0411650854       -0.9209496196      -12.0114606154
 H        -5.4598897467        0.1984523420      -13.1831659558
 H        -8.7115042681        1.5839901069      -12.2481579219
 H        -7.6086422040        1.5309941494      -13.6080711234
 H        -7.7106969520        3.0052319018      -12.6096306528
 H        -4.8835465998       -1.0819684364       -6.2061551272
 H        -5.0415384025        0.4534091561       -6.9791704980
 H        -5.5224119477       -1.0213780876       -7.7432992464
 H        -7.7470963685       -1.6154192995       -7.2524617759
 H        -9.0251651735       -1.1691339103       -6.0517221163
 H        -7.4817186216       -2.1615837068       -5.8202370128
 H       -10.9780703624       -1.6352582622       -1.2748400865
 H       -10.8008364365       -1.4630694415        0.5001453398
 H        -9.3667832513       -1.4209890297       -0.5685016268
 H       -12.6960223400        0.1692570992       -1.6275883878
 H       -12.4717386463        1.5296613406       -0.7422085717
 H       -12.5654704560        0.0546053717        0.0318737229
 H       -10.7329378706        5.5458626676        0.0901483631
 H       -11.3079968979        7.2012166972        0.9066928371
 H       -12.4589923441        5.9552141941        0.6442278112
 H        -9.9077195339        7.5235499160        3.1345699808
 H        -8.9844949449        6.5514725955        1.9633772180
 H        -9.0796625596        6.0000488472        3.6070404498
 H       -16.3132077656        5.6865326388        8.6050526284
 H       -15.6703812434        3.9342008431        8.3511749882
 H       -16.8475591153        4.7353562264        7.1641525834
 H       -15.5186194918        7.3694315129        8.1355862612
 H       -15.6220908647        7.5784317896        6.3067880210
 H       -14.0876144715        7.6824997597        7.0883332936
 H        -9.0520957562        8.2650350676       10.2942029791
 H        -8.1424117850        6.8907582189       10.6729634113
 H        -9.8829906163        6.8095105944       10.9043221455
 H        -8.0629316639        8.9580474204        8.0424307960
 H        -9.7431067779        8.8351959113        7.4531859261
 H        -8.5928246358        7.6850245679        6.8215887966
 Na      -10.4201114389        5.1238508906        5.8257582490
