117

 C        -7.2072964527        5.4304878890        9.2688881717
 C        -8.4497832382        5.7191638424        8.3687676302
 O        -8.8248320120        4.9564428332        7.4311034604
 C        -9.2670146374        6.9975751007        8.7789970209
 C       -10.6111093326        6.6835673572        8.2574341115
 O       -11.1631943051        7.3620496629        7.4144553176
 C       -11.3739453022        5.4720374222        8.8636743750
 C       -12.9260708470        5.4645651184        8.8281185815
 C       -13.4127196397        5.3271544984        7.3360773085
 O       -12.7599999995        4.9425201124        6.3867755744
 C       -14.8430905197        5.8847120103        6.9544005459
 C       -14.9046783690        5.5107277993        5.3138442010
 O       -15.4184637850        4.4512503558        5.0287653649
 C       -14.2335513555        6.4858577866        4.3044034765
 C       -13.3516294597        5.9366511322        3.0973027047
 C       -11.8441958813        6.1984123458        3.3885159984
 O       -11.2751079063        6.7137406940        4.3897498606
 C       -10.7639814750        5.7030838139        2.3120199579
 C       -10.4609287906        4.1905473799        2.6971531581
 O       -10.4305117560        3.8330897133        3.8944322994
 C        -9.8481879174        3.2579802409        1.5839150407
 C       -10.9221260462        2.3940862484        0.7918960646
 C       -10.2098032184        1.2331745572        0.0343079430
 O        -8.9771776538        1.1016552502        0.1335518099
 C       -10.7795654783        0.2243067462       -1.0131550500
 C        -9.9667986532        0.5485619839       -2.3322265177
 O       -10.6830029645        0.9910971171       -3.1799534200
 C        -8.4865959648        0.3263499318       -2.5145709435
 C        -7.9795184255        0.8671247401       -3.9288996056
 C        -6.8377885284        0.0908567004       -4.5816916123
 O        -5.9279152195       -0.3623082464       -3.9413798243
 C        -7.1262735806       -0.2933884732       -6.0713310023
 C        -7.4334689110        1.0574334367       -6.8356596540
 O        -6.8875995327        2.0296890468       -6.4112611194
 C        -8.5444258145        1.0784295606       -7.9182347647
 C        -8.0624016634        1.5275783020       -9.2946017897
 C        -7.4045187229        0.4180298937      -10.3578189052
 O        -7.1934131242       -0.7292796742      -10.1103797559
 C        -6.8150072775        1.0649519116      -11.6685204695
 C        -5.5528293361        1.8230900116      -11.1137562938
 O        -5.5618004542        3.0652503893      -11.0439770299
 C        -4.3170088704        0.9845533786      -10.6551795597
 C        -6.5735554374        0.0325622244      -12.9478206304
 C        -7.7549539995        2.1422081266      -12.3212241924
 C        -5.8478350195       -1.0225987961       -6.6830726891
 C        -8.1584209505       -1.4735454073       -6.1792026728
 C       -10.3099247209       -1.1983326139       -0.5643629714
 C       -12.2675955498        0.2188357370       -1.2655956385
 C       -11.4494665438        5.8982532360        0.9573106559
 C        -9.4276053171        6.5830762990        2.1438319692
 C       -15.9624902593        5.1788837811        7.7273279943
 C       -15.0066715541        7.5144498274        7.2322080991
 C        -9.3607887709        7.4128956876       10.2586405668
 C        -8.6318040944        8.1512598498        7.9314456980
 H        -6.6078046141        6.3495633778        9.6314166518
 H        -6.4056529996        4.7543845486        8.8022512424
 H        -7.5863040888        5.0133614086       10.1986918276
 H       -10.9397413062        5.2772816719        9.7848246046
 H       -11.0315397438        4.5801070303        8.3390325981
 H       -13.2538161009        6.4147320147        9.2479376929
 H       -13.3214821240        4.5841926120        9.4365702477
 H       -13.8131078130        7.3638771966        4.7811912620
 H       -15.2018057706        6.8189172943        3.8221760864
 H       -13.7502826157        6.2811080675        2.1816209088
 H       -13.4112242292        4.8603935753        2.9275453106
 H        -9.3129010364        2.6206314696        2.1600370969
 H        -9.1649894050        3.6240631268        0.7380549735
 H       -11.5075506880        3.0890228139        0.0333698120
 H       -11.5625438825        2.0528280295        1.5509201246
 H        -8.2384492628       -0.7318847703       -2.5101999783
 H        -7.8438185372        0.6242898763       -1.7070813443
 H        -7.6942415868        1.9581929218       -3.9017931152
 H        -8.7052784300        0.9585042611       -4.7669758425
 H        -9.2659786310        1.7921740299       -7.6758469906
 H        -9.1531034068        0.1683944968       -7.9926771424
 H        -7.4120979365        2.4230543332       -9.3577209403
 H        -8.9729971212        1.6810162851       -9.8965471255
 H        -4.7358290462        0.3453477419       -9.8783511939
 H        -3.4974292919        1.5252471030      -10.3005431926
 H        -4.2250960875        0.2813001578      -11.5031677778
 H        -6.2518279731        0.5939667611      -13.8305265693
 H        -7.4907060692       -0.6101442655      -13.0204728817
 H        -5.8204960285       -0.6889313707      -12.6622033277
 H        -7.5243518899        3.1172940823      -11.9005195219
 H        -8.7851169547        1.9309832811      -12.1515621959
 H        -7.4828717130        2.2438965999      -13.3709557977
 H        -5.5678576031       -2.0846345487       -6.3625267509
 H        -5.0366874804       -0.3827483328       -6.4266933469
 H        -5.7991552696       -1.1748308176       -7.7247790389
 H        -7.9358142012       -1.8321255355       -7.1870603682
 H        -9.2745943040       -1.2451819217       -6.0721440523
 H        -7.9390574347       -2.3004393258       -5.4947821359
 H       -10.4057140553       -1.7217584712       -1.5100667991
 H       -11.0340230336       -1.5433181945        0.2199968046
 H        -9.3550240404       -1.0743033088       -0.1509863650
 H       -12.7107807249       -0.7829509859       -1.1177266093
 H       -12.4865987463        0.5037808604       -2.3290530418
 H       -12.9139965180        0.9172084048       -0.5571863975
 H       -10.7669072874        5.4981415240        0.2571906160
 H       -11.7347372737        6.8693907876        0.9410315905
 H       -12.3800199509        5.3578076813        0.7354797768
 H        -9.5844736092        7.6569426249        2.2982140212
 H        -8.9724284231        6.3701888595        1.1914145186
 H        -8.6639543295        6.3624672141        2.8246073581
 H       -15.4991286027        4.5282650530        8.5275529575
 H       -16.5400499225        4.4237727581        7.1701256171
 H       -16.6146104944        5.9122581232        8.1603024366
 H       -14.8326342883        7.5836345044        8.3165546278
 H       -16.1120025087        7.7824185964        7.2585174604
 H       -14.5013165358        8.2425451482        6.7226740639
 H        -9.0899502183        8.4198544251       10.3857864465
 H        -8.6715776728        6.8010466463       10.8482619188
 H       -10.3959686050        7.2283419967       10.6883416184
 H        -7.5758211663        8.1895597893        7.8832813001
 H        -8.8852691448        9.1090932876        8.3437360086
 H        -8.8398728750        8.0644502785        6.9254011379
 Na      -10.7099757201        5.2181194409        5.8474994121
