117

 C        -7.4702142250        5.1674463743        9.4393016858
 C        -8.4424237531        5.6709775887        8.4330209333
 O        -8.5902574381        5.1142867684        7.3503947749
 C        -9.2733392111        7.0191400899        8.7523371114
 C       -10.7519874034        6.7503537436        8.3340349985
 O       -11.0581220365        7.2162634076        7.2246624062
 C       -11.6134019246        5.6713956867        9.0347311000
 C       -13.0960111001        5.7164000062        8.5818642156
 C       -13.3607537870        5.6587209680        7.1114983172
 O       -12.6333810576        4.9677091090        6.4141809298
 C       -14.7996580345        6.1352758045        6.7210048880
 C       -14.9467921145        5.9099762298        5.2487826365
 O       -15.5813773418        4.9890798364        4.7288466523
 C       -13.9561707486        6.8006880315        4.3743071802
 C       -13.0990678138        5.8195196299        3.6060156412
 C       -11.7812020726        6.3385633495        3.2543883998
 O       -11.2682918652        7.1635215310        3.9214392603
 C       -10.9321222096        5.6059400831        2.2189229229
 C       -10.5471358523        4.1653740388        2.7212734362
 O       -10.2227613224        3.8991296936        3.9441602258
 C       -10.1688573515        3.0740609637        1.6813232662
 C       -10.9936878401        2.4217071412        0.5929876591
 C        -9.9640912480        1.3732738949       -0.1317691067
 O        -8.8200139103        1.1647388487        0.3291828029
 C       -10.6434444523        0.4053131142       -1.0900375098
 C       -10.0526220018        0.5647531290       -2.5679021775
 O       -10.8198569350        0.4780665520       -3.4782736359
 C        -8.5465422625        0.6603349000       -2.6068184245
 C        -7.8776079971        0.8692139053       -3.9764008068
 C        -7.0134714247       -0.3003900364       -4.4497321115
 O        -6.1290864451       -0.8348895280       -3.8685067886
 C        -7.2888651371       -0.5248110670       -5.8657237412
 C        -7.4598314207        0.8840403340       -6.7227586496
 O        -6.7083326060        1.8149481512       -6.5209258960
 C        -8.2789606766        0.7672227619       -7.9037735898
 C        -7.6364628752        1.5539570083       -8.9926632611
 C        -7.4704034992        0.5507541416      -10.2670698028
 O        -7.7918128023       -0.5791553750      -10.1568088265
 C        -6.7873652631        1.1921546811      -11.5125255847
 C        -5.4932494989        1.6791347519      -11.0680479536
 O        -5.2345062342        2.8873961646      -11.2977722651
 C        -4.7015012153        0.5996994932      -10.2002196886
 C        -6.6122872154       -0.0097573285      -12.5519023994
 C        -7.9117312302        2.1885179351      -11.9840775921
 C        -6.0416712660       -1.2187418943       -6.4867029166
 C        -8.4170687375       -1.5533233106       -6.0364166889
 C       -10.2154314082       -1.0692416998       -0.6819463288
 C       -12.1905595813        0.4560710136       -1.0809707522
 C       -11.7631404136        5.5824898145        0.8522042984
 C        -9.5670959311        6.4251677826        1.9169344503
 C       -15.9019429158        5.2074597980        7.3865827458
 C       -14.9533953043        7.5972961527        7.1387526313
 C        -9.2146108153        7.4823418522       10.2656678397
 C        -8.5982068739        8.0846846876        7.9935044211
 H        -6.7284119263        5.8101224844        9.9576479253
 H        -6.8725179216        4.3575919937        9.0031367422
 H        -8.0692066042        4.8269146582       10.1718846553
 H       -11.5399154751        5.7051203974       10.1611293076
 H       -11.1482170148        4.6702356724        8.8643909081
 H       -13.5844540215        6.5650434641        9.0268772542
 H       -13.5463182343        4.8648294855        9.1275164354
 H       -13.2124880564        7.2239524820        4.9940989333
 H       -14.4214177780        7.5778321665        3.7011765833
 H       -13.5640784337        5.4280386637        2.6369947455
 H       -12.9902106367        4.8266864743        4.1508945339
 H        -9.5685024094        2.2989863795        2.1502934744
 H        -9.2839354863        3.4660012724        1.0023603212
 H       -11.4191689878        3.1265890904       -0.1919115117
 H       -11.6974675505        1.8974870362        1.2243915861
 H        -8.1698335564       -0.3811321132       -2.3158147439
 H        -7.9454405461        1.1712404104       -1.7197351765
 H        -7.4804995191        1.8498264975       -4.1813547842
 H        -8.4739604359        0.8667586646       -4.8779323334
 H        -9.3440372943        1.1159308714       -7.7096805653
 H        -8.4363315957       -0.2706301820       -8.2143882600
 H        -6.6930665508        1.9946947249       -8.7408705467
 H        -8.4034091991        2.2174409217       -9.4606724004
 H        -4.5833002059        1.0212295826       -9.1672584510
 H        -3.7452322391        0.7105067065      -10.7036048920
 H        -5.1738196888       -0.3878551314      -10.0180471275
 H        -5.5735090724       -0.2916892155      -12.6433663484
 H        -6.9919601743        0.3412362870      -13.5612658106
 H        -7.1518573929       -0.8436363450      -12.1554752459
 H        -7.8713812361        3.1867114033      -11.4779660725
 H        -8.8329660717        1.7519101773      -11.7166170444
 H        -7.8345991923        2.3015800041      -13.0837628631
 H        -5.7665866707       -2.1900666508       -5.9028663284
 H        -5.1064144657       -0.6608389273       -6.6675888247
 H        -6.2248581496       -1.6917858958       -7.3803907146
 H        -8.7137396797       -1.7703114671       -7.0932192490
 H        -9.3209774886       -1.2789036268       -5.5298079063
 H        -8.0934529393       -2.3929133133       -5.5154888886
 H       -10.8500779881       -1.7491623033       -1.2779532311
 H       -10.3709311242       -1.1087627587        0.4176930600
 H        -9.1798552760       -0.9672692781       -0.9177972107
 H       -12.5607203977        0.4160941221       -0.1027854899
 H       -12.5805923982       -0.3430322401       -1.5966578272
 H       -12.5766209817        1.4710044934       -1.3926189742
 H       -11.2825535828        4.9460898791        0.0910271727
 H       -11.9638224996        6.6050288961        0.5898282256
 H       -12.8067608593        5.1017648481        0.9409086301
 H        -9.4840638701        6.7218939584        0.8315648430
 H        -8.6277570971        5.8588212940        2.1743524747
 H        -9.5350096900        7.3765612022        2.4220676771
 H       -15.8371490635        4.2219100662        7.0687983123
 H       -16.8335032823        5.5447843196        6.9308113414
 H       -16.0264311746        5.3212257726        8.3891541239
 H       -15.5144996203        7.8920519249        8.0540038820
 H       -15.4895548141        8.1663310437        6.3177276116
 H       -14.0313315521        8.0676502061        7.1226598220
 H        -9.4229472442        8.4902910272       10.4305309162
 H        -8.3524440834        7.1382182782       10.8156028029
 H       -10.1511983052        6.9646844769       10.6854119251
 H        -7.6133133134        8.4204135228        8.4281213272
 H        -9.2166239536        9.0471010647        8.1399041109
 H        -8.2228330717        7.8995629179        7.0633197043
 Na      -10.1931049963        5.2063871848        5.8909524574
