117

 C        -7.6091185305        4.9493376016        9.6075649814
 C        -8.3965137861        5.5704261023        8.5298145440
 O        -8.4152577788        5.0791187177        7.4087671892
 C        -9.0817977968        6.9689779662        8.7835707548
 C       -10.6359128739        6.6839684980        8.3655393447
 O       -11.0289462882        7.2158025602        7.3317173163
 C       -11.6823201069        5.8107050579        9.1612979326
 C       -13.1842084313        6.0456013128        8.8001153453
 C       -13.4449940456        5.8454825441        7.2058935372
 O       -12.6223960194        5.1094397205        6.6459661265
 C       -14.9033869260        6.1320769231        6.7141683939
 C       -15.0681783062        6.2352003210        5.1227114823
 O       -16.1169165647        5.9121416153        4.6203956839
 C       -13.8573575104        6.8272504195        4.2842723686
 C       -12.9088307719        5.8503351172        3.5009909038
 C       -11.5649462275        6.3689099384        2.9786530350
 O       -10.9450978096        7.0524438802        3.7121100269
 C       -10.7324875950        5.6399723174        1.8392502882
 C       -10.3882487984        4.1844455448        2.6053641831
 O       -10.5080502536        4.1316900701        3.7991987487
 C        -9.7837708678        3.0592469251        1.8481346092
 C       -10.7508230533        2.2585636340        0.8933611623
 C        -9.8909855643        1.1992500715        0.0405640046
 O        -8.6909305831        1.0679787062        0.1875298613
 C       -10.6638987612        0.2433343969       -0.9500716911
 C        -9.8667420064        0.4798903502       -2.3383126879
 O       -10.3843105360        0.2506678685       -3.3889431381
 C        -8.3706070620        1.0099333152       -2.5126204261
 C        -7.7607596676        0.9847867036       -3.8942183925
 C        -7.2092746628       -0.4077581686       -4.2396620859
 O        -6.6867975130       -1.1046155165       -3.4139116671
 C        -7.3145247038       -0.8526100698       -5.8442605651
 C        -7.3380144518        0.5333183696       -6.7140727706
 O        -6.4547980869        1.3503230993       -6.4885323459
 C        -8.4600825923        0.8645322244       -7.7677952584
 C        -8.1094591014        1.5634730092       -9.0555872523
 C        -7.7699734664        0.6248271580      -10.2577147068
 O        -8.2491148179       -0.4658994457      -10.4115247840
 C        -6.8816004394        1.1452006226      -11.4765298423
 C        -5.3732844978        1.4557493494      -11.1856721251
 O        -4.8569368334        2.4963934944      -11.6149629291
 C        -4.5667991666        0.8119835898       -9.9542268036
 C        -6.8000408327        0.0517412291      -12.5869036681
 C        -7.5188362707        2.3281037891      -12.1834942698
 C        -6.1122333617       -1.7051335275       -6.2381071402
 C        -8.6594156368       -1.7664909239       -5.9348872069
 C       -10.7248510731       -1.1574497263       -0.3375571140
 C       -12.1037732875        0.4726219590       -1.2471468702
 C       -11.5816481003        5.4334855049        0.5236997637
 C        -9.3466433046        6.4216718412        1.5126469029
 C       -15.8711886325        5.2023531480        7.3945498380
 C       -15.1161147135        7.6200219567        7.1044060058
 C        -9.1364664152        7.4295992736       10.3307319213
 C        -8.6344434570        8.0660797950        7.8852454756
 H        -6.8269301476        5.7498966277        9.7451170758
 H        -6.9979720952        4.0825374894        9.3092785464
 H        -7.9904388173        4.7641894430       10.5364930573
 H       -11.5257163029        6.0079731321       10.2683694853
 H       -11.3382972146        4.8082984881        8.9629023444
 H       -13.4754332713        6.9857978220        9.2840445152
 H       -13.8622029320        5.3836379509        9.3003115838
 H       -13.2954933378        7.3842143356        5.0373853946
 H       -14.2416745905        7.5434145482        3.5236818604
 H       -13.4980274267        5.4291662761        2.6649823435
 H       -12.6519505582        5.0285100291        4.1264008845
 H        -9.0667625974        2.4304969066        2.4603370384
 H        -9.0567689059        3.5602474460        1.1800893620
 H       -11.1901374496        2.8784745357        0.1628891086
 H       -11.4359846644        1.6794652832        1.5287111219
 H        -8.0079659018        0.3601107971       -1.8029613944
 H        -8.0554658001        1.9432638885       -1.9959150885
 H        -7.0362038421        1.6026219893       -4.3366407172
 H        -8.5981186967        1.1579275233       -4.6034299552
 H        -9.3116303963        1.5565521903       -7.2846224999
 H        -8.9323483226       -0.0670234847       -7.9916364910
 H        -7.3546582887        2.2939207103       -8.8736100339
 H        -9.0192251805        2.0461679486       -9.4729903283
 H        -3.7551539853        1.4906374800       -9.6648112982
 H        -4.1134600888       -0.1245583789      -10.3591748137
 H        -5.1673294378        0.6934288977       -9.0899842826
 H        -6.4675255360       -0.8733388025      -12.1161412086
 H        -5.9805650590        0.3969014941      -13.2300431890
 H        -7.7967710476       -0.1546448396      -12.9866608142
 H        -7.9518867173        3.0973059746      -11.5257239534
 H        -8.3290181442        1.8902976668      -12.7143070065
 H        -6.8472988337        2.7117978169      -12.9459527510
 H        -5.9633834336       -2.6143381454       -5.5993395246
 H        -5.1067225142       -1.2657432105       -6.3710772332
 H        -6.2490495061       -2.0626909570       -7.1655978556
 H        -8.8029429620       -2.2447290169       -6.9925813285
 H        -9.5629197289       -1.2550873444       -5.7752287529
 H        -8.6048846552       -2.5556659720       -5.1786873310
 H       -10.7944265316       -1.7714804430       -1.1900943316
 H       -11.6205216346       -1.1874848640        0.1595375203
 H        -9.8448707520       -1.2509970135        0.2743920255
 H       -12.7341502583        0.5828956712       -0.3577403894
 H       -12.3811536927       -0.4076717535       -1.7165968183
 H       -12.3523763619        1.3769704603       -1.8431312591
 H       -10.9504018557        5.4986755829       -0.3523323608
 H       -12.1525518330        6.3737130171        0.3509424571
 H       -12.2713019262        4.5495542155        0.6119400640
 H        -8.6647314685        5.6520309834        1.2246140780
 H        -8.8663562589        6.9198026074        2.3360569107
 H        -9.3959714201        7.0500152044        0.6625404208
 H       -16.3970767700        4.5728702568        6.5410214657
 H       -16.7374373510        5.6951998067        8.0077014291
 H       -15.4758220133        4.4017322145        8.0593021965
 H       -14.9481493172        7.8157024022        8.2026803022
 H       -16.0122882879        8.1735001788        6.8413190230
 H       -14.3011835919        8.2014070007        6.6913321950
 H       -10.1482829133        7.7375266208       10.5546280445
 H        -8.4202511836        8.1812094545       10.5557042273
 H        -8.9867877251        6.6109905379       11.0725632018
 H        -7.5507322459        8.3165689108        8.1445586717
 H        -9.3121008071        9.0095086018        8.1455942713
 H        -8.4734217986        8.0072736903        6.8573458213
 Na      -10.4602530980        5.7422984941        5.5065389427
