117

 C        -7.5918853697        4.9442441596        9.3963152119
 C        -8.6510274960        5.5643760681        8.5018420085
 O        -8.7327718485        5.2240457841        7.3327283111
 C        -9.1306210076        6.9348439398        8.9312049609
 C       -10.6742830701        6.8256750662        8.2895078462
 O       -11.1563610340        7.3915816874        7.3439623606
 C       -11.6099776416        5.8920106774        9.1572557891
 C       -13.0029633803        6.1405496509        8.6859319010
 C       -13.4055688854        5.9509139586        7.2268846011
 O       -12.7805526356        5.1915642119        6.5143231618
 C       -14.8208576810        6.3535110110        6.7596060950
 C       -14.8379094295        6.4482707123        5.1438276936
 O       -15.8676273306        6.3090310208        4.5666924133
 C       -13.5373394363        6.9265609819        4.3302128862
 C       -12.9257466486        5.9514570623        3.2829986817
 C       -11.5039163907        6.2635861571        3.0009722332
 O       -10.9779280744        7.1797148788        3.6671982008
 C       -10.6731364275        5.5788447942        1.8401976202
 C       -10.2754722891        4.2218498939        2.4975663304
 O       -10.4517397923        4.1392805031        3.7246376356
 C        -9.6752076960        3.0694854568        1.5881001160
 C       -10.6969232333        2.0848766053        1.1541787620
 C        -9.8637114813        1.1715022848        0.1812745303
 O        -8.7453027707        0.9061961890        0.5323981663
 C       -10.5286002323        0.3133445363       -0.9576246921
 C        -9.7622487595        0.2889122069       -2.3319699789
 O       -10.3034490784       -0.1154789625       -3.3472469725
 C        -8.4102853537        1.0000218071       -2.3861713149
 C        -7.7682459745        1.0593047003       -3.7694831418
 C        -7.3509782138       -0.5032088735       -4.2591224637
 O        -7.1436798657       -1.3101477937       -3.4203001084
 C        -7.4870663792       -0.9190194460       -5.8783136705
 C        -7.3263961612        0.2393275458       -6.7894431135
 O        -6.3541493067        0.9642669571       -6.7751624033
 C        -8.4454369214        0.5248541406       -7.8151833529
 C        -8.0235904077        1.5863226496       -9.0177118834
 C        -7.7602283100        0.6872132361      -10.1820148439
 O        -8.4363574165       -0.3046239208      -10.4102105342
 C        -6.8413940530        1.2293069779      -11.3788213067
 C        -5.3294789884        1.5037625016      -11.0599268940
 O        -4.5973510946        2.1554984694      -11.7311790179
 C        -4.9789356651        0.5508484540       -9.9878775927
 C        -6.5145988334        0.0709762050      -12.3462449910
 C        -7.7833395861        2.4017535968      -12.0534541098
 C        -6.2166874892       -1.8701061890       -5.9377916419
 C        -8.7866511229       -1.6014790024       -6.1171393678
 C       -10.4854840739       -1.2505658297       -0.3735964729
 C       -11.8227866040        0.9484065227       -1.2908940707
 C       -11.5040136546        5.2101376647        0.5303130483
 C        -9.4862674277        6.5156627968        1.4501505792
 C       -15.9311192036        5.2684041320        7.1962798013
 C       -15.3609757581        7.7277113932        7.1125744861
 C        -9.0763410986        7.2738826555       10.3434012555
 C        -8.3730341612        7.9712905323        7.9721741240
 H        -6.9495814249        5.5631466894        9.9105002150
 H        -7.0570503432        4.2090472369        8.8657081336
 H        -8.0412291809        4.2707487023       10.2196046579
 H       -11.4231003512        6.1380460380       10.1907346374
 H       -11.3453144840        4.8015969353        8.9562767163
 H       -13.3755778657        7.0699902749        9.1012925423
 H       -13.7599034708        5.4713395946        9.1313932531
 H       -12.8505024342        7.4498147077        5.0223178847
 H       -13.8782728645        7.7181678841        3.6802801984
 H       -13.5293164776        6.1865415065        2.3712465409
 H       -13.0530178202        4.8275221566        3.5749216658
 H        -8.8494664314        2.5583798679        2.2420161367
 H        -9.0699081520        3.4238971565        0.7993243453
 H       -11.5567056625        2.6466038912        0.7190510759
 H       -10.9871477322        1.2651099712        1.8987582395
 H        -7.6357298850        0.8198602375       -1.5140981352
 H        -8.6362471467        2.0152777232       -1.9896757495
 H        -6.7555827412        1.6081634230       -3.6757994255
 H        -8.2420468257        1.6058637869       -4.5889956873
 H        -9.2845573348        0.8457072903       -7.2996563889
 H        -8.7088573800       -0.4624682032       -8.3411535771
 H        -6.9953271665        2.0083035675       -8.8449915596
 H        -8.7852514536        2.3501626455       -9.1227982038
 H        -3.8905883191        0.5932865570       -9.8682361350
 H        -5.4659219251       -0.4360193520      -10.0809040149
 H        -5.2080039760        1.1785745222       -9.0788524846
 H        -6.9555848052       -0.8754136126      -12.0192225830
 H        -5.4635123073       -0.0504069994      -12.3776351011
 H        -7.0602599300        0.3164362528      -13.2416677916
 H        -7.7041738481        3.2955160631      -11.4842172287
 H        -8.8726861214        2.1431965983      -12.1029802655
 H        -7.4704913790        2.5428431675      -13.0718725072
 H        -6.2297037408       -2.6608301340       -5.2346742247
 H        -5.3066667722       -1.3441536067       -5.6888600227
 H        -5.8514827977       -2.2565570922       -6.9981313384
 H        -8.8600326328       -1.9489114568       -7.0771145378
 H        -9.6199363225       -0.8676146661       -5.9738615518
 H        -8.9675313935       -2.4325698556       -5.4383334560
 H       -10.8350624478       -1.8253241648       -1.2369528689
 H       -11.2614912720       -1.1561074473        0.3929010369
 H        -9.4325194266       -1.4746082590       -0.0388375582
 H       -12.6412718845        0.7243074312       -0.5880712797
 H       -12.0841575738        0.7010277921       -2.3466628537
 H       -11.6887453408        1.9747647462       -1.3475390284
 H       -10.8253476640        4.6789775614       -0.1333403340
 H       -11.5084763762        6.0501284333       -0.1743182551
 H       -12.3918231963        4.7424191772        0.7903766652
 H        -8.4415280498        6.2378528849        1.6574179205
 H        -9.6318675536        7.4422699109        2.0148504184
 H        -9.6115637440        6.8555759178        0.3850999175
 H       -16.8210744082        5.3463334447        6.7706480718
 H       -16.0648045017        5.2866839613        8.2546383118
 H       -15.6250382689        4.3162717372        6.9594512282
 H       -15.0731912213        8.1563357282        8.0453242879
 H       -16.4004788630        7.5279176188        7.2246925258
 H       -15.4062550653        8.6708020267        6.4936018318
 H        -9.3424121794        8.3716244845       10.4358333998
 H        -8.0235722063        7.1600121757       10.6766969721
 H        -9.6264464928        6.6726876276       10.9913166825
 H        -7.3017779732        7.9249906003        7.8453060810
 H        -8.7208668317        8.9432589550        8.0498319743
 H        -8.7776842809        7.7583389671        6.8763574682
 Na      -10.5890542707        5.9251683069        5.6199123861
