117

 C        -7.6344127400        4.7961829640        9.1828297084
 C        -8.5639564469        5.6348334339        8.2801109861
 O        -9.0499311052        5.1188288113        7.2856931693
 C        -9.2099672260        7.0388526055        8.8239558471
 C       -10.6812039065        7.0160265424        8.4108526247
 O       -11.0339186718        7.5673777080        7.3952093593
 C       -11.5895544997        5.9637004510        9.0932085603
 C       -13.1055160700        6.1665719215        8.7489498132
 C       -13.5111552814        5.9532541862        7.1984467300
 O       -12.7025456656        5.3257252236        6.4821713643
 C       -14.8812126283        6.5072938142        6.6553204596
 C       -14.7718977896        6.5795870347        4.9849575057
 O       -15.7623658360        6.3622888009        4.3300175895
 C       -13.4819847747        6.9932453719        4.4434142210
 C       -13.1341367836        6.0608753508        3.1788202052
 C       -11.6580819584        6.3698476299        2.8927007727
 O       -11.0050898470        7.1713883417        3.5686063281
 C       -10.7493674786        5.6013209638        1.8373054975
 C       -10.1260529145        4.2702864581        2.5861354922
 O       -10.2793741776        4.1100069064        3.7262018146
 C        -9.5432502912        3.2569133923        1.6646293344
 C       -10.5636370127        2.1052865291        1.2896908436
 C        -9.8023309362        0.9846831939        0.4339742122
 O        -8.6280933635        0.8264946863        0.6444474440
 C       -10.5166956540        0.3809986676       -0.9434758342
 C        -9.7192833972        0.3398198320       -2.3005593621
 O       -10.2015793040       -0.3930457053       -3.1640989964
 C        -8.2841495257        0.9686941561       -2.3944475686
 C        -7.6679792814        0.9560399270       -3.8758845681
 C        -7.6101637421       -0.4704936490       -4.1777662942
 O        -7.4368742000       -1.3029228684       -3.3112475318
 C        -7.5507438824       -0.9480187992       -5.7548373864
 C        -7.2872491607        0.1639076029       -6.8383654160
 O        -6.2087044444        0.7856729364       -6.9162043447
 C        -8.4144609800        0.4919814572       -7.8674840057
 C        -7.8540581492        1.4825250792       -8.9533763801
 C        -7.7941192850        0.7210457882      -10.2290560523
 O        -8.4372802654       -0.3013893220      -10.4049121337
 C        -6.9091604605        1.1800142354      -11.5085878393
 C        -5.4028334358        1.4414417051      -10.8606842374
 O        -4.6880799355        2.1133080375      -11.5697655697
 C        -4.8161363318        0.5501425609       -9.6796905241
 C        -6.9032387202        0.0379950699      -12.5631292099
 C        -7.5569748066        2.4105906792      -12.0940463382
 C        -6.2443136188       -1.9002010805       -6.0731972469
 C        -8.9070060649       -1.6871242245       -5.9918464368
 C       -10.5664894307       -1.1339570588       -0.6941380239
 C       -11.8754247564        0.9443548880       -1.3212689580
 C       -11.6698308490        5.2909522358        0.6396276732
 C        -9.4012335591        6.4173129080        1.4109735920
 C       -15.7866754875        5.3105295967        7.0170583883
 C       -15.3421098594        7.7807233531        7.2737416191
 C        -9.1072737471        7.2184140035       10.3583816948
 C        -8.3708912928        8.0221077171        7.9761157726
 H        -6.9272247859        5.4624770848        9.7552284492
 H        -6.9995478680        3.9947222540        8.6640020229
 H        -8.0843661812        4.1891362898        9.9809369940
 H       -11.3403229849        5.9782117963       10.1349023316
 H       -11.2891191883        5.0236157963        8.6506676856
 H       -13.4702011934        7.2156752039        9.0363478823
 H       -13.8008762627        5.5746835450        9.3606784953
 H       -12.6649154646        7.0767314797        5.2148313528
 H       -13.5751215648        8.0284992668        4.1454520392
 H       -13.9627714802        6.0943093019        2.4345249197
 H       -13.0288479529        5.0727530926        3.6618433636
 H        -8.5749640377        2.8481615699        2.1856533992
 H        -9.1492219886        3.7189963879        0.8262502442
 H       -11.3690725563        2.5531454743        0.8029348787
 H       -10.9484173001        1.4222499111        2.1595424640
 H        -7.5879973045        0.4649089375       -1.7673494695
 H        -8.2525336926        1.8629709966       -1.8111626890
 H        -6.7762883451        1.6005245887       -3.9014113160
 H        -8.2379208811        1.2503416256       -4.7989858092
 H        -9.2058351740        0.9949183205       -7.2687869085
 H        -8.7517331452       -0.3672096537       -8.3720146666
 H        -6.7878485130        1.8115505831       -8.6385802178
 H        -8.5387054379        2.3583235510       -8.9531552854
 H        -3.7822282967        0.3128627379       -9.9798199788
 H        -5.4974253750       -0.3174229855       -9.4079865283
 H        -4.5577691413        1.1875842831       -8.9070376635
 H        -7.6744347225       -0.6997900110      -12.3526789583
 H        -5.9862436388       -0.4085973411      -12.3720227352
 H        -7.1243426739        0.3962793193      -13.5677294617
 H        -7.3722207131        3.1951266183      -11.3582546725
 H        -8.6710576100        2.3007670150      -12.2221879912
 H        -7.1937076572        2.6684336578      -13.0823763563
 H        -6.2304901273       -2.8270737023       -5.5211259055
 H        -5.1680316132       -1.5519777632       -5.8759544093
 H        -6.1890692635       -2.0838115934       -7.1120816108
 H        -9.1077956910       -2.1911680620       -6.9884600972
 H        -9.5380406956       -0.8584318824       -5.9582192765
 H        -9.2739709428       -2.3518910755       -5.1880885663
 H       -11.2563915969       -1.5136733247       -1.4927640845
 H       -10.9424683951       -1.1951534917        0.3134288315
 H        -9.4550477528       -1.4610245492       -0.8794073298
 H       -12.6187047660        0.9156913666       -0.4286885982
 H       -12.2688148736        0.4564351906       -2.2283317478
 H       -11.7733578180        1.9777927959       -1.7550058578
 H       -11.3385521568        4.5487249866       -0.0042914746
 H       -11.5464839242        6.0845554017       -0.0995282800
 H       -12.6141909887        5.1016587687        1.0391263822
 H        -8.5076237350        5.9211617277        1.8009725271
 H        -9.3208640233        7.4695348618        1.8117698148
 H        -9.3376660249        6.5275218212        0.2788332510
 H       -16.8864087599        5.4445683610        7.1163643136
 H       -15.5216868367        4.9207831037        8.0020024569
 H       -15.7405256091        4.5411298910        6.3236767680
 H       -15.0553636301        8.0029704098        8.2793188636
 H       -16.3444372609        8.0175264239        7.1870350595
 H       -14.8844827394        8.6658928453        6.7484104731
 H        -9.0007143829        8.3131072907       10.6833253149
 H        -8.2704066872        6.6477610107       10.7675706288
 H        -9.9411280096        6.7625456389       10.8677268267
 H        -7.3706529999        7.7424357954        8.1362406218
 H        -8.5278461779        9.1044980474        8.0597300742
 H        -8.5136745846        7.9612901178        6.9736290781
 Na      -10.5588030629        5.8227907486        5.7913223146
