117

 C        -7.4047279120        4.7639128486        8.4081476972
 C        -8.6625253247        5.3920276154        7.9988432366
 O        -9.3195013299        4.8761073383        7.1305657995
 C        -9.2259066636        6.7020614118        8.7189597542
 C       -10.7158487143        7.1511954524        8.3190497822
 O       -10.9321775370        8.1447294300        7.6206722816
 C       -11.8947600551        6.2504291644        8.8280784253
 C       -13.2727691861        6.7417177776        8.4401853969
 C       -13.5179292115        6.3031081536        7.0002792797
 O       -12.8581387641        5.5578270176        6.2952627286
 C       -14.8684566010        6.7674060609        6.2888025536
 C       -14.6452019082        6.9151944439        4.6854213268
 O       -15.4846036844        6.5911397928        3.8965043797
 C       -13.3148882207        7.5407640764        4.3075383880
 C       -12.7237462776        7.0978629436        2.8544165983
 C       -11.3536287896        6.5938963739        3.1347465276
 O       -10.5467682389        7.1283732302        3.9151385184
 C       -10.6934796746        5.6296077271        2.0257666760
 C        -9.9537378763        4.5165353241        2.5431904594
 O       -10.0221153333        4.1612189397        3.7553738291
 C        -9.3704704927        3.4890256954        1.4430214228
 C       -10.0788785176        2.0726318563        1.5700644999
 C        -9.4811163524        1.1380218506        0.4977004288
 O        -8.2767143945        0.8155128248        0.5322478775
 C       -10.4722868486        0.5384385161       -0.7199520009
 C        -9.7916573653        0.2223705403       -2.2023538276
 O       -10.4222648932       -0.2814926488       -3.0725427770
 C        -8.3224447222        0.7122333152       -2.4458024868
 C        -7.9241804080        0.6265752710       -3.8680213420
 C        -7.6329156600       -0.8186325397       -4.2224198009
 O        -7.3256259770       -1.6869177863       -3.4407478903
 C        -7.8304091650       -1.2422817683       -5.7533807370
 C        -7.3782342935       -0.1474072285       -6.6508992497
 O        -6.2552397206        0.2700482398       -6.7133675588
 C        -8.4383320598        0.5997450615       -7.4947672863
 C        -7.7671032912        1.4271245934       -8.7229942914
 C        -7.7501080693        0.5740084703       -9.9796936418
 O        -8.4608433712       -0.4052125136      -10.0044433635
 C        -6.9200268739        1.0881106377      -11.1230771113
 C        -5.3162010656        1.0800724543      -10.6711145292
 O        -4.4929681755        1.8852929150      -11.0152447661
 C        -5.1117478968       -0.4229806121      -10.2654319374
 C        -6.8723274101        0.2959369999      -12.4738672098
 C        -7.5694492449        2.4521167003      -11.5138941045
 C        -6.8690906036       -2.5125613705       -6.0408319082
 C        -9.2647132487       -1.7761113022       -5.9960591630
 C       -10.8412896980       -0.9451613423       -0.3412192528
 C       -11.6146537857        1.3846344831       -0.9205302538
 C       -11.8694651885        5.0066475764        1.0755472482
 C        -9.8584071749        6.5159609101        0.9514665374
 C       -15.7524147625        5.5843470437        6.6187144031
 C       -15.5318357519        8.0897669527        7.0289537362
 C        -8.9504396625        6.9211545680       10.2675854306
 C        -8.3365423765        7.6778747341        8.0587929112
 H        -6.5549649622        5.4553109354        8.1350645667
 H        -7.1878337112        3.7770785437        7.9431818259
 H        -7.2605792367        4.5560157953        9.5156361649
 H       -11.8458049760        6.3838924355        9.9102066003
 H       -11.7339880105        5.2750564643        8.4870924148
 H       -13.4189219597        7.8429779810        8.6035882673
 H       -14.0050517164        6.2866897543        9.1721671840
 H       -12.4981528078        7.5810669908        4.9827913914
 H       -13.4385504484        8.6531732501        4.1429749542
 H       -12.5803126130        8.0656681162        2.3032261926
 H       -13.4139406337        6.3976263779        2.4711391587
 H        -8.3341618013        3.3796198237        1.7326222690
 H        -9.5325987188        4.0528162339        0.3813971189
 H       -11.1913434296        2.0787878253        1.4776553201
 H       -10.0143531003        1.7203369524        2.5467419468
 H        -7.7113106636        0.0032967961       -1.9543797812
 H        -8.1693471027        1.5908249562       -1.8537349136
 H        -6.9852224190        1.1947301606       -3.9118838812
 H        -8.7208779835        1.1416624827       -4.4118146712
 H        -8.9621633328        1.1145056190       -6.6334174480
 H        -9.0387073802       -0.1596953161       -7.9432026342
 H        -6.8376270152        1.9160453840       -8.4158028616
 H        -8.4992630180        2.3239055882       -8.7165905869
 H        -4.3143409183       -0.7507150277      -10.9495338189
 H        -5.9455672299       -1.0555688079      -10.2856932452
 H        -4.5858235525       -0.5872246282       -9.2431522769
 H        -6.4314800372        0.9794752369      -13.1470152980
 H        -7.9365935420        0.2081247814      -12.8209598141
 H        -6.4035158886       -0.6513995785      -12.3416950763
 H        -7.2437632987        3.3436772734      -10.9191072460
 H        -8.6069344879        2.3126204812      -11.4851171026
 H        -7.3590188229        2.6923702137      -12.5820714785
 H        -7.1159875035       -3.3423343047       -5.3272147768
 H        -5.8607346020       -2.3970253592       -5.9105811307
 H        -7.1050668895       -2.8842502976       -7.0852064210
 H        -9.3523804823       -2.3441747960       -6.9132735832
 H       -10.0737361213       -0.9408920751       -5.8858644491
 H        -9.3902615283       -2.4885588793       -5.2209763697
 H       -11.0188268019       -1.3224275604       -1.3635646379
 H       -11.8435179277       -0.8548568034        0.2334872856
 H       -10.0359126758       -1.3366265259        0.2317030233
 H       -12.2882122069        1.4649810911       -0.0386050422
 H       -12.2988139320        1.0001444078       -1.7644254986
 H       -11.1053592870        2.3792229661       -1.2104770312
 H       -11.4161951055        4.2844174652        0.4069468650
 H       -12.2713674854        5.8790872005        0.6393395492
 H       -12.7254055467        4.4434960906        1.5440798071
 H       -10.0645890849        7.6225559606        1.1608489164
 H       -10.1633621231        6.2697587221       -0.0796209184
 H        -8.7700595639        6.4063999677        0.9405863269
 H       -16.4092713265        5.4855939219        5.7628408577
 H       -16.5178039495        5.7471081134        7.4916978657
 H       -15.3041766441        4.5795697097        6.7729189160
 H       -15.3628227211        8.0679362304        8.0969732367
 H       -16.6193603120        8.2894183297        6.9926839593
 H       -15.2282503112        8.9981560728        6.6869211371
 H        -9.6504283768        7.5076873874       10.7815714487
 H        -8.0692295652        7.5661242311       10.4007641458
 H        -8.6056195136        5.9452608052       10.7582070014
 H        -7.3750003788        7.5477349244        8.3912253669
 H        -8.5189424083        8.6249259470        8.3609627897
 H        -8.3820764311        7.8370681757        6.9810778321
 Na      -10.7063567550        5.5295451347        5.6598926732
