117

 C        -7.2753627484        4.8241623840        8.6024784464
 C        -8.6202642795        5.2872082192        8.0348576129
 O        -9.2383789304        4.5058863298        7.3273351209
 C        -9.0413669323        6.7347742181        8.4626344058
 C       -10.5531186531        7.0184046114        8.1115059031
 O       -10.8024454076        7.8860853994        7.3056130094
 C       -11.8318696981        6.2582042788        8.7768473455
 C       -13.1424434772        6.8295114669        8.3079639209
 C       -13.5790956337        6.4053015643        6.8871196945
 O       -12.8604510585        5.6148909006        6.2437936518
 C       -14.8791383139        6.9906801829        6.1379721358
 C       -14.4403719865        7.1010323983        4.6184757561
 O       -15.0444308035        6.6191697457        3.7169992644
 C       -13.2728612318        7.9922176506        4.1901485678
 C       -12.5133292905        7.6103981959        2.8609813093
 C       -11.4251054041        6.6728600334        3.0528347842
 O       -10.6774579331        6.8605063463        4.0152954926
 C       -11.0027154921        5.6516000592        1.8675065056
 C       -10.0865704324        4.5433193536        2.4545593011
 O        -9.9835201743        4.3787847935        3.6445501321
 C        -9.1287709058        3.5576194661        1.6182823961
 C        -9.7538610901        2.0878217379        1.7355192763
 C        -9.3432868128        1.3720748579        0.4860013596
 O        -8.1082072713        1.1511687797        0.3033113983
 C       -10.4657716214        0.6668673107       -0.5514397705
 C        -9.9391995757        0.3369713838       -2.0747994745
 O       -10.6826167027       -0.1511013399       -2.8711839120
 C        -8.4470420726        0.5822227626       -2.3828932958
 C        -8.0002153998        0.2562619191       -3.8142034376
 C        -7.5882412904       -1.1544082316       -4.0704822260
 O        -7.0183144639       -1.8797247416       -3.3376104869
 C        -7.9861610508       -1.4286319184       -5.7627030302
 C        -7.4819597302       -0.2712660300       -6.6048705739
 O        -6.2863991486       -0.0349393240       -6.6661742608
 C        -8.5286711184        0.6416310043       -7.3400224330
 C        -7.7963632974        1.3238588783       -8.5837031094
 C        -7.7546754554        0.4524545160       -9.8166847840
 O        -8.2130720405       -0.6821356858       -9.8942999464
 C        -6.9402164408        1.0591698378      -11.0335271751
 C        -5.3818505152        0.7506276318      -10.6621810639
 O        -4.7187004131        1.6803304139      -10.3020213239
 C        -4.8007269441       -0.6304345171      -10.4243075715
 C        -7.5884485544        0.4562927984      -12.2941356028
 C        -6.9693062304        2.5822044538      -11.3191436267
 C        -7.2154145496       -2.7056023977       -6.2140482841
 C        -9.5640883310       -1.8452278457       -5.8721838166
 C       -10.8943688902       -0.5515015730        0.2528853762
 C       -11.7391894777        1.6236369467       -0.9443089753
 C       -12.2235034006        5.0586481457        1.0055634658
 C       -10.1381672583        6.5827605233        0.7856841140
 C       -15.9480416614        5.8795954072        6.1051318278
 C       -15.5183447645        8.3742195700        6.5166640534
 C        -8.9830587404        6.5882943727       10.0342006877
 C        -8.1746139677        7.8384168270        8.0129631316
 H        -6.5634405896        5.5235904786        8.1873599528
 H        -6.9562406275        3.8893556946        8.2416039979
 H        -7.1282756465        4.8126365551        9.6480769115
 H       -11.7279381338        6.6869673937        9.8256551862
 H       -11.7482357507        5.1685615077        8.7617066626
 H       -12.8676521015        7.9050815831        8.1888874964
 H       -13.8980856546        6.7769829378        9.0539441151
 H       -12.4964117761        8.2722733919        4.8917254535
 H       -13.7327952491        8.9628993208        3.9535043719
 H       -12.1425763851        8.6313126255        2.4873193841
 H       -13.3310715663        7.2579931132        2.2315126615
 H        -8.2619440273        3.6120615549        2.2054403949
 H        -9.0568421548        3.8272992831        0.4618380442
 H       -10.8543596203        2.0407986419        1.6809856298
 H        -9.6140836181        1.5060936792        2.6811314629
 H        -7.9038976268       -0.1896137703       -1.7442357091
 H        -8.1615638200        1.6482799340       -1.9630717978
 H        -7.0648697095        0.8049636523       -3.7229999810
 H        -8.8395445339        0.5897357463       -4.4964224692
 H        -8.9461051576        1.3658550981       -6.5979347406
 H        -9.2264793586        0.0189565531       -7.6706572598
 H        -6.8171062912        1.7604414862       -8.2960411510
 H        -8.3241882418        2.2842257072       -8.6481244743
 H        -3.6854213464       -0.7952336653      -10.4169804058
 H        -5.1791255324       -1.3790916085      -11.1222514022
 H        -5.2546456417       -1.0577772304       -9.4739123898
 H        -7.0252132234       -0.3434727217      -12.7654215182
 H        -7.6058127399        1.2222240400      -13.0814658700
 H        -8.5665238877        0.1727014986      -11.9123589992
 H        -6.6813695408        3.2207329398      -10.4501607916
 H        -7.8541150538        2.9585575332      -11.7715683394
 H        -6.1350793236        2.7357660518      -12.0099524326
 H        -7.5797705879       -3.5914275438       -5.5564971469
 H        -6.1619377735       -2.6340085684       -6.1359425637
 H        -7.4667721714       -3.0985610202       -7.1983831793
 H        -9.8638458597       -1.9246736706       -6.9357306210
 H       -10.1737824174       -1.0502844971       -5.4301636397
 H        -9.7393933439       -2.7550332321       -5.4060120666
 H       -11.9190602031       -0.8053336273        0.0506603574
 H       -10.7536951684       -0.2753267570        1.3145749303
 H       -10.1506684959       -1.2046418340       -0.0064486451
 H       -12.5168780804        1.4827026173       -0.3212761838
 H       -12.0473244702        1.2695239759       -1.8751674621
 H       -11.4873353736        2.6612716314       -0.9094652725
 H       -11.7954616545        4.3849097999        0.2642324135
 H       -12.8760995855        5.8077197392        0.7482341477
 H       -12.9867986375        4.4427908905        1.5783471524
 H       -10.8606837367        6.7745962572       -0.0019947811
 H        -9.3706210570        5.9724890504        0.3580971702
 H        -9.7684868105        7.5185312005        1.0424319560
 H       -16.6952021825        6.0116390958        5.4682563862
 H       -16.3874487643        5.9959376993        7.0768954175
 H       -15.5907731680        4.8854908251        6.1226076949
 H       -16.2515729725        8.5064397935        7.3612262430
 H       -16.1366250521        8.8729280266        5.7072910248
 H       -14.7995128686        9.1035536903        6.6365300091
 H        -9.2236983356        7.4921871863       10.4898126620
 H        -8.0550721981        6.3268039487       10.4560443146
 H        -9.6939428653        5.7303994188       10.3531779871
 H        -7.0936324621        7.7120863046        8.3226595534
 H        -8.4056599026        8.8150930140        8.4766714409
 H        -8.0361439450        8.1021294380        6.9149742808
 Na      -10.7430936891        5.3352388464        5.5467212580
