117

 C        -7.2133811806        4.7524778398        8.5102630981
 C        -8.5697183668        5.1290449966        8.0388802392
 O        -9.2063501737        4.4712943696        7.2973828847
 C        -9.1661973785        6.6254612080        8.5709322982
 C       -10.5841193947        7.1034203864        7.9950701663
 O       -10.7637424554        7.7578252636        6.9900512668
 C       -11.8267471929        6.4450000645        8.6434803958
 C       -13.2203278865        6.9152794984        8.1640818324
 C       -13.5289878495        6.4782955583        6.7335292699
 O       -12.9627115557        5.5521879060        6.1989595285
 C       -14.7496235698        7.0257322458        6.0453824515
 C       -14.3950314581        7.2063781883        4.3923239186
 O       -14.9681704312        6.4615510871        3.6542358719
 C       -13.2092554469        8.2348193257        4.1217638936
 C       -12.4582523197        7.8608416015        2.6776878046
 C       -11.3845026453        6.8511526866        2.9879042336
 O       -10.6973421927        6.8230725010        4.0046025091
 C       -11.0030981498        5.7389527317        1.8412884875
 C       -10.0962841457        4.5304898467        2.5221307182
 O       -10.0079500420        4.3113277515        3.7505343779
 C        -9.3521119218        3.6311881738        1.5473955836
 C        -9.8497451806        2.1218572516        1.6740910012
 C        -9.2679944277        1.4082112539        0.3436413995
 O        -8.0672028689        1.3201275355        0.3821547899
 C       -10.3852745364        0.7566716229       -0.5733051821
 C       -10.0096279016        0.1904302238       -2.0255425063
 O       -10.7988495041       -0.1034093022       -2.8804561477
 C        -8.5149397727        0.4449490126       -2.2523134394
 C        -8.0002159417        0.3131672946       -3.7014893499
 C        -7.7432585210       -1.2019901340       -4.2191004374
 O        -7.0310439613       -1.8988959814       -3.4904403447
 C        -8.0211621956       -1.6422056012       -5.6254825824
 C        -7.4437708947       -0.3804618395       -6.5478681307
 O        -6.3103717289       -0.0805485276       -6.6590012201
 C        -8.5380975773        0.5388810337       -7.2626030319
 C        -7.9391948625        1.3787498158       -8.5079833987
 C        -7.6277158189        0.4476071877       -9.6852303641
 O        -8.1621321678       -0.6528519686       -9.6961850634
 C        -6.8325786790        1.1170957824      -11.0027206979
 C        -5.3961539531        0.7180730089      -10.5924182777
 O        -4.6215000657        1.5691399533      -10.0962829148
 C        -5.0577855159       -0.8109042366      -10.6920289011
 C        -7.3790415206        0.4376364714      -12.3720100915
 C        -7.1453461961        2.5778108128      -11.1872647890
 C        -7.3176687596       -2.9788941991       -6.1211919623
 C        -9.5459226317       -1.7374906981       -5.9227903939
 C       -10.8208071464       -0.5184025576        0.3963617160
 C       -11.5400579719        1.7950767614       -0.7921998626
 C       -12.1331665708        5.0623721100        1.1033816357
 C       -10.3373845752        6.6231599383        0.7844134872
 C       -15.9330398297        6.0071488762        6.1326498658
 C       -15.2928293098        8.3854078165        6.5411420348
 C        -9.0464402761        6.7037947266       10.1839060770
 C        -8.1180070610        7.7661755037        8.1049111460
 H        -6.5590706220        5.5784818780        8.4018088128
 H        -6.7355824068        3.9293419250        7.9841547886
 H        -7.2614501762        4.5636692149        9.6718631973
 H       -11.6998819705        6.4208668171        9.7410989381
 H       -11.7381133025        5.4375459969        8.2575892424
 H       -13.4356933975        7.9476347235        8.4448586841
 H       -13.9488984384        6.2449157470        8.7222077600
 H       -12.4316742372        8.0866246203        4.8372297222
 H       -13.5204566927        9.3208676188        4.2647747418
 H       -12.0323897460        8.8145834955        2.2059288768
 H       -13.2898165911        7.4776890042        2.0718272966
 H        -8.1226859704        3.5988577137        1.9556331344
 H        -9.5314151196        3.9896669385        0.6283009760
 H       -10.9502385818        1.9010149303        1.8275640943
 H        -9.4405159540        1.6458296454        2.5334345588
 H        -7.9031704763       -0.0440679060       -1.4851735416
 H        -8.5649444277        1.5213644135       -2.0209985290
 H        -7.0720355251        0.8883956892       -3.5698786785
 H        -8.8885122532        0.7266591570       -4.1942186904
 H        -8.8322136784        1.1808194429       -6.4469112447
 H        -9.3811253113       -0.1411103615       -7.4985134376
 H        -7.1663367151        2.0134547371       -8.0971070153
 H        -8.6736857523        2.2641353080       -8.6861145916
 H        -3.9958614359       -0.9764996977      -10.4003086436
 H        -5.1198015010       -1.3982606662      -11.5990190431
 H        -5.6929823189       -1.4895420470       -9.9532711893
 H        -7.2875573880       -0.6485621265      -12.3686677820
 H        -6.6891355144        0.7648568535      -13.2067926771
 H        -8.4106007013        0.7727660784      -12.4254898936
 H        -6.7595020200        3.1284264892      -10.3268194933
 H        -8.1337768501        2.8375845219      -11.4049708577
 H        -6.4972451104        2.9242448714      -12.0029967481
 H        -7.2639447903       -3.8920488008       -5.5346423100
 H        -6.3567876020       -2.6325933589       -6.3634695632
 H        -7.7230379620       -3.3759137507       -7.1498964718
 H        -9.7075833073       -1.7811339554       -6.9410998175
 H       -10.1746646027       -0.8688419550       -5.4801006385
 H        -9.8710446004       -2.6570631782       -5.5357905673
 H       -11.6814387670       -0.9994301003       -0.0562891909
 H       -11.0039918989       -0.1218793962        1.4327678647
 H        -9.8450059084       -1.0380634769        0.3462041038
 H       -12.2566428550        1.7569517119        0.0113863419
 H       -11.9780104270        1.5682547163       -1.7846596613
 H       -11.1741875364        2.7374103740       -0.6775818183
 H       -11.6887695679        4.4226936847        0.3455919845
 H       -12.9095708574        5.7618522366        0.7862432400
 H       -12.7930534081        4.4454880039        1.6906488249
 H       -11.0834883536        6.8374608276        0.0047519313
 H        -9.4748826568        6.2223344849        0.3213996348
 H       -10.1396336153        7.5989839551        1.1741009804
 H       -16.8987283529        6.4190288323        5.7988592895
 H       -16.0970255504        5.7792104567        7.2207847185
 H       -15.6870013758        5.1156023297        5.7280909227
 H       -16.1333929497        8.1418695125        7.1779025829
 H       -15.8005937389        9.1656027114        5.9683597570
 H       -14.6572130469        8.9660885044        7.2077513517
 H        -9.3685218136        7.6576969178       10.6116066869
 H        -7.9395507947        6.6285551590       10.3038658253
 H        -9.4509943869        5.8823689858       10.7766666926
 H        -7.1109421970        7.7384059450        8.3861787486
 H        -8.3852333099        8.7581734319        8.1908917928
 H        -7.9952225320        7.5591507626        6.9930801297
 Na      -10.7104300519        5.2589521125        5.5963098955
