117

 C        -8.1590868270        4.0122242380        8.7432450387
 C        -8.9964338746        4.9902477847        8.0932764363
 O        -9.5966506645        4.7094363774        7.1141562074
 C        -9.2003003356        6.4877325424        8.7811788990
 C       -10.3042950575        7.1973475015        8.0795907551
 O       -10.1350412617        7.6895496166        6.9598008946
 C       -11.7786287621        6.8992858716        8.5710174901
 C       -12.7270692871        7.7889635411        7.6728562167
 C       -13.1721040553        7.1596090951        6.3869209149
 O       -12.7948279789        6.1126107101        5.9119013767
 C       -14.4218775072        7.9916390781        5.6513075909
 C       -14.0285098726        8.0092356537        4.0815987159
 O       -14.4793766872        7.0933469493        3.3624767239
 C       -13.0000090234        9.0480233902        3.5250176385
 C       -12.0837707845        8.5084367631        2.3719268025
 C       -11.4211383167        7.1632905578        2.6366628030
 O       -10.9774324723        7.0880845228        3.7339432765
 C       -11.1522261043        6.1459619578        1.5371485590
 C       -10.2602239303        4.9425784331        1.8882081947
 O       -10.0413996356        4.6185110881        3.0584410438
 C        -9.7318542314        3.9975668832        0.7280243856
 C        -9.3608225084        2.6453182200        1.3511507037
 C        -8.8406535855        1.6752834060        0.3159012374
 O        -7.6832184525        1.5914028540        0.3424388577
 C        -9.8903300639        0.6258896140       -0.3622732738
 C        -9.6356488928        0.1680065872       -1.9052720157
 O       -10.7002892044       -0.0378899931       -2.5138940908
 C        -8.1244304518        0.1579875334       -2.4172008559
 C        -7.7452524451       -0.4130858212       -3.8087020006
 C        -8.2117485464       -1.8418742668       -4.0336932633
 O        -8.0186584417       -2.6205134118       -3.1137156571
 C        -8.7401189780       -2.2480533756       -5.3670677335
 C        -8.0041349257       -1.3721526651       -6.5261407903
 O        -6.8106574361       -1.3683157867       -6.6757566039
 C        -8.9398410995       -0.3797704536       -7.3056819390
 C        -8.0589376331        0.7288819576       -7.8915462801
 C        -7.8620826445        0.3915650176       -9.5328072197
 O        -8.5675505362       -0.4384577062      -10.0297927871
 C        -6.6594840498        0.9751798986      -10.2667863349
 C        -5.3704856033       -0.0391771184      -10.1410526042
 O        -4.3295130079        0.4641934414      -10.3901490527
 C        -5.4785078592       -1.5837433473      -10.0166331868
 C        -6.8960290982        1.2045221592      -11.7537545831
 C        -6.4017406730        2.3735495307       -9.7562882993
 C        -8.2964129443       -3.8127560106       -5.6592603155
 C       -10.2909515798       -2.2838734132       -5.4477445834
 C       -10.0269341731       -0.6215892698        0.6610482958
 C       -11.2937615549        1.3511762900       -0.4046518697
 C       -12.6159702730        5.6465798064        1.1180678000
 C       -10.5658347437        6.9024883791        0.2234809907
 C       -15.6416888180        6.8262986826        5.9491193380
 C       -14.8485765240        9.3006783680        6.4610049678
 C        -9.4998038316        6.3076125137       10.2510858356
 C        -7.8695356506        7.4912380715        8.6854524879
 H        -8.7147505610        3.4765334228        9.6290200438
 H        -7.2216784740        4.4991451234        9.2011984671
 H        -7.8910947614        3.1832074238        8.1312620876
 H       -11.7618659910        7.1687477615        9.6402599488
 H       -12.1045825421        5.8781766140        8.5553584135
 H       -12.1276628498        8.7032618120        7.4085982753
 H       -13.6323820198        8.0740448359        8.2348341883
 H       -12.4897681055        9.6018654097        4.2846301311
 H       -13.6927273565        9.7199596419        2.9118200305
 H       -11.2599277668        9.1598203999        2.1980793308
 H       -12.6529297535        8.5984182256        1.4654218135
 H        -8.9509054013        4.4878919675        0.0574526075
 H       -10.5277899186        3.8848414480       -0.0796524100
 H       -10.2308532896        2.3525703819        2.0018778066
 H        -8.5581876884        2.7775035656        2.0220254332
 H        -7.5418661410       -0.2437831135       -1.6173266424
 H        -7.9709783332        1.2339563926       -2.4843391258
 H        -6.6873903860       -0.3224126469       -3.8810371880
 H        -8.0609365461        0.2372137746       -4.6227316084
 H        -9.8223695682        0.0298557877       -6.8076516852
 H        -9.3064769828       -0.8942917420       -8.2305762373
 H        -7.0706846647        0.6074055314       -7.5437624304
 H        -8.3791641998        1.8126288131       -7.8491219454
 H        -6.4054061229       -1.7984866771       -9.5230699879
 H        -4.6719738561       -2.0228910094       -9.4310791877
 H        -5.4272120107       -2.1170623005      -10.9553275866
 H        -7.9374806868        1.4793661757      -12.0151236487
 H        -6.4918245723        0.3456606012      -12.3283455113
 H        -6.2817408076        2.0630142392      -11.9543108887
 H        -6.5677791568        2.6424509851       -8.7165226454
 H        -7.1716945280        2.9067740023      -10.2171727731
 H        -5.5263760728        2.9247262424      -10.1122522949
 H        -8.8683506052       -4.4530305009       -5.1210905367
 H        -7.2343617291       -4.0682311629       -5.3370480235
 H        -8.4809077219       -3.9502858324       -6.6931727864
 H       -10.5117358146       -2.6912453319       -6.4367965291
 H       -10.6868174806       -1.2791094328       -5.3746093811
 H       -10.7037853423       -2.8732468942       -4.5445315333
 H        -9.5974675288       -1.5384946958        0.2283439790
 H       -11.0634324258       -0.6764564064        1.1074493766
 H        -9.2896643436       -0.2161879955        1.4259534114
 H       -11.6396606018        1.4710237386        0.6978587904
 H       -12.1840705621        0.8237761062       -0.7371365620
 H       -11.1113104942        2.3760547248       -0.8080732883
 H       -12.7552565754        4.7581073601        0.5418876307
 H       -13.1795874096        6.4544910932        0.5752355602
 H       -13.0638971470        5.2995828345        1.9809237871
 H        -9.6819166223        7.5191247861        0.3814632908
 H       -11.3970441982        7.4453475039       -0.1729543029
 H       -10.3984533851        6.2085698763       -0.5810385633
 H       -16.5855381199        7.2870499859        6.3656568672
 H       -15.2252375745        6.1132954930        6.6507261352
 H       -15.8603731327        6.5231470610        4.8105427779
 H       -15.1469765383        9.0070348520        7.4337939831
 H       -15.5661354781        9.7576745235        5.8771020813
 H       -14.0901797988       10.1294394119        6.4213042263
 H        -9.8956354787        7.3233055914       10.5834660665
 H        -8.5758033788        6.2122833109       10.9047708631
 H       -10.0354227678        5.4361508055       10.4433112864
 H        -6.9317136088        7.1047812546        8.9332473336
 H        -7.8776520668        8.3504902636        9.3963120660
 H        -7.8673580858        7.8952077898        7.7701632553
 Na      -10.5288058220        5.4043550673        5.3114552628
