117

 C        -8.7459855910        3.6582831700        8.6799814604
 C        -9.3911694611        4.8109407345        7.9469614441
 O        -9.7425963499        4.6183796891        6.8297731759
 C        -9.4784539141        6.2073794575        8.7394762548
 C       -10.3809835987        7.1870284036        7.8511836473
 O       -10.0174608677        7.5753174978        6.8086358592
 C       -11.7377221956        7.6832117380        8.5743596137
 C       -12.5114963745        8.5943055886        7.6095764077
 C       -13.0550168817        7.9269299280        6.3019694466
 O       -12.5349098049        6.8390177719        5.9772777552
 C       -14.4100403424        8.3646972262        5.5922507688
 C       -14.0404928508        8.2762687618        4.1398516976
 O       -14.6062676303        7.4056807795        3.4893373114
 C       -12.8403086826        9.1240317968        3.5975005736
 C       -12.1513394336        8.6053220290        2.3494816213
 C       -11.0514978322        7.3527393670        2.3098987717
 O       -10.1088865584        7.3414505866        3.0444271501
 C       -11.0430319122        6.2057281192        1.2778795220
 C       -10.4017858463        4.9259786557        1.8041657476
 O       -10.2395308504        4.7139074384        2.9636674327
 C        -9.9643389762        3.8535007176        0.8420559266
 C        -9.4668840303        2.4761368473        1.4235350921
 C        -8.8051140637        1.7045525094        0.1918401649
 O        -7.8810859483        2.1637765533       -0.4659600194
 C        -9.5996814795        0.4610553526       -0.2754736143
 C        -9.2565645605        0.3196987634       -1.9357780103
 O       -10.0684607695        0.6772384561       -2.7834236658
 C        -7.7361517330        0.0165960226       -2.4098854833
 C        -7.6728515409       -0.6528700615       -3.7221213432
 C        -8.6910972135       -1.9260112863       -3.8306829780
 O        -8.9901615630       -2.5371052066       -2.7781051915
 C        -9.1525127078       -2.4681462516       -5.2104754364
 C        -8.1495159481       -1.8986218507       -6.2626314557
 O        -6.9409537210       -2.0029626839       -6.2378282475
 C        -8.8659788795       -1.2655657165       -7.3592612808
 C        -8.1056220425       -0.0081484769       -7.8276153675
 C        -7.9207279816        0.1483604004       -9.4404601507
 O        -8.9669132156        0.1006062626      -10.0296804163
 C        -6.5827323545        0.7535109562       -9.9201266037
 C        -5.4948709410       -0.2853014781       -9.9231994126
 O        -4.4265380533       -0.0494352954      -10.4002036786
 C        -5.7887148550       -1.6304553232       -9.3880104046
 C        -6.6036420158        1.1157153937      -11.4840846923
 C        -6.1487734891        1.9922203972       -9.0203368857
 C        -8.9456974019       -4.0365355230       -5.2490447152
 C       -10.6705697913       -2.3480692737       -5.4297832999
 C        -8.9480630671       -0.7274710394        0.4589350424
 C       -11.1418453092        0.5326497382        0.0708406018
 C       -12.5414662688        5.8836565614        0.9335503885
 C       -10.3167116043        6.6400089108       -0.1105585267
 C       -15.4709870133        7.1755549853        5.9375733901
 C       -14.8450344451        9.7756702243        6.2686192039
 C       -10.0185513539        5.8509752883       10.1330225049
 C        -7.9591772498        6.7442150646        8.6646226988
 H        -8.3818132829        2.9685074195        7.9687086714
 H        -9.3506821123        3.1128503873        9.3453733898
 H        -7.8942291335        3.8663654278        9.3230957088
 H       -11.5706357162        8.2338752525        9.5038961723
 H       -12.4812413397        6.8549950516        8.6781147685
 H       -11.9523004875        9.4614132780        7.2811560611
 H       -13.1786543358        9.0945583369        8.2675652981
 H       -12.2891031429        9.3851711845        4.5592818825
 H       -13.2415280256       10.0682214874        3.3393228407
 H       -11.6104804497        9.4280781886        1.8137498607
 H       -12.7892447892        8.2526994352        1.5630964234
 H        -8.9049908191        4.2921610859        0.3616829910
 H       -10.5461409540        3.5802710183        0.1014726757
 H       -10.2317267258        1.8409121016        1.7841878661
 H        -8.7453443493        2.5507949928        2.3497637058
 H        -7.0978920074       -0.3539545199       -1.6056632681
 H        -7.2868698985        1.0893936719       -2.4348206755
 H        -6.6342308062       -1.0032511420       -3.9309535287
 H        -7.6942222684       -0.0548647144       -4.6650745404
 H        -9.8393946272       -0.8311815411       -6.9641035019
 H        -9.1827398275       -1.9922798721       -8.0545859800
 H        -7.0688308975       -0.1616393892       -7.4825292516
 H        -8.3680988546        0.9519346952       -7.5319600589
 H        -5.4405531340       -1.7105759627       -8.3904568062
 H        -5.3068004110       -2.2784171665      -10.0308474572
 H        -6.8798823534       -1.8227152703       -9.1683947321
 H        -5.7981039426        1.7256689264      -11.8452771616
 H        -7.5952830043        1.5437539112      -11.7218776771
 H        -6.7813995409        0.2174899420      -11.9830655259
 H        -6.0895825780        1.9492482839       -7.9356433578
 H        -6.8793319253        2.7753197429       -9.2583537365
 H        -5.2491015125        2.4833590750       -9.3026889783
 H        -8.7875800853       -4.2805830208       -6.2723177230
 H        -9.9333514849       -4.3854997532       -5.0550694301
 H        -8.2513674420       -4.4775030464       -4.4996011982
 H       -11.0903391860       -3.1656912720       -5.9820508629
 H       -11.0748042241       -1.3639275858       -5.9248347221
 H       -11.0444265262       -2.4910992514       -4.4446969399
 H        -8.7057213960       -0.4696169686        1.5150155673
 H        -7.9596160677       -1.0644598817       -0.0675867432
 H        -9.7309337916       -1.5117987816        0.5566749627
 H       -11.1801520090        0.3092255436        1.1907214865
 H       -11.8574908195       -0.0817301417       -0.5922605200
 H       -11.6448332145        1.4656908598       -0.0599506133
 H       -12.7744545050        4.8500237062        0.5266484652
 H       -13.0112601187        6.6284976692        0.3143210962
 H       -13.1772732458        6.1678315684        1.7967506600
 H        -9.2299816714        6.8544945670       -0.1306659940
 H       -10.8304325253        7.5142597775       -0.5288257166
 H       -10.4865662148        5.8083748741       -0.7581658148
 H       -15.3339206094        7.0677835576        7.0074651269
 H       -15.4204736104        6.3149425473        5.4301807862
 H       -16.3804904978        7.6993469668        5.6435133123
 H       -15.0462015089        9.7247551682        7.3236129517
 H       -15.8341071428        9.9894505638        5.8014887968
 H       -14.0148709819       10.4019116944        5.9928578728
 H       -10.1524084426        6.6996779611       10.8186410968
 H        -9.2693325920        5.1447472784       10.5819737148
 H       -11.0084422247        5.3768888918       10.0179203440
 H        -7.2605519792        6.1072022258        9.3027867137
 H        -7.8100113215        7.8615266462        8.8798577380
 H        -7.5107977064        6.4718200570        7.6979742606
 Na      -10.0193946045        6.3309437947        5.0816245758
