117

 C        -9.6481108341        3.3868260890        8.2861565771
 C        -9.5627885803        4.7709231023        7.6883072795
 O        -9.5286588918        4.8895841595        6.5102465531
 C        -9.4910538407        6.0706357412        8.6459874272
 C       -10.2377349455        7.3505711070        7.8978333554
 O        -9.7445098295        7.8649656454        6.9388339129
 C       -11.5388584677        7.9363795129        8.5408393905
 C       -12.4490967987        8.6867478087        7.4362329877
 C       -12.7378755141        7.8601913428        6.2430221546
 O       -12.2235930901        6.8041194979        5.8911968177
 C       -14.0178986978        8.3499076393        5.5262288347
 C       -13.7865964880        8.3429654955        3.9746197252
 O       -14.4958110530        7.7114160294        3.1954699610
 C       -12.4704593540        8.9376155752        3.5885809469
 C       -12.1902819756        8.6776467598        2.1331991636
 C       -11.1503279531        7.5026963555        2.2200953954
 O       -10.2483988942        7.6164282624        3.0273660817
 C       -11.2107902223        6.2644112968        1.3779862161
 C       -10.5049005334        4.9554146958        1.9587518988
 O       -10.2865912533        4.7570085658        3.1043548422
 C        -9.9983797747        4.0150232501        0.8929867476
 C        -9.5748001699        2.4900608520        1.3597124678
 C        -8.8978178629        1.8425246062        0.2236030580
 O        -8.0626474455        2.4485838728       -0.5176010580
 C        -9.3755684670        0.4190440399       -0.2291702808
 C        -9.0237185368        0.4948853688       -1.7683636327
 O        -9.7099865709        1.1880722808       -2.4943654711
 C        -7.7974579713       -0.2121963141       -2.3271547046
 C        -8.1149073511       -0.7306079808       -3.7391771713
 C        -8.9921661952       -1.9395542298       -3.7038687049
 O        -9.4042903714       -2.4094711474       -2.6219829611
 C        -9.2805225815       -2.6573107809       -5.0328557242
 C        -8.2961461895       -2.1931688396       -6.2267166161
 O        -7.0831958635       -2.3434342306       -6.0426469786
 C        -8.8033495342       -1.5970882479       -7.5303077041
 C        -8.1815933096       -0.0968125399       -7.7141837982
 C        -7.9682506440        0.2517225935       -9.2490163276
 O        -8.9597045533        0.0380074839       -9.9055188628
 C        -6.6021207741        0.6931218967       -9.8985119762
 C        -5.4626647372       -0.5378348762       -9.9133034682
 O        -4.3113902355       -0.2000610300      -10.0036362434
 C        -5.8411163510       -1.9577834644       -9.5580947826
 C        -6.7363711240        1.3487335627      -11.3867576312
 C        -5.9097999308        1.7486579077       -9.0681389515
 C        -9.1567173994       -4.1658119964       -4.8932491174
 C       -10.8599627933       -2.3304196472       -5.1536038180
 C        -8.5392014142       -0.6505556404        0.5715982316
 C       -10.8589185920       -0.0080313596       -0.1886580372
 C       -12.6848973278        5.7123505651        1.0272234440
 C       -10.5029075784        6.8947045559        0.0628798240
 C       -15.2218583662        7.4605242516        5.8477423155
 C       -14.3696328560        9.9131010165        5.7904430555
 C       -10.1912787771        5.7455410713        9.9993988030
 C        -8.0182903859        6.5446677911        8.9564458868
 H        -8.9507009804        2.7683139981        7.6599441262
 H       -10.5921305090        2.7480638371        8.2506867139
 H        -9.3412979738        3.3767369591        9.3748905179
 H       -11.2933604616        8.6366777001        9.3060221897
 H       -12.1554704459        7.0821149274        8.7930527933
 H       -12.1945492831        9.7471267035        7.3865558834
 H       -13.4718950205        8.8185906560        7.9109692953
 H       -11.8566810427        8.6816376893        4.4468025903
 H       -12.5244300692        9.9837938872        3.7640855202
 H       -11.8123785501        9.5239560629        1.6378998390
 H       -12.9596856129        8.2884201184        1.5137901901
 H        -9.0048824345        4.5014626512        0.5497457499
 H       -10.6357712427        3.9468006102        0.1806399633
 H       -10.3884240003        1.9283250967        1.6688157572
 H        -8.8765970204        2.6645695795        2.2679398949
 H        -7.3627800509       -0.9103057007       -1.6144742686
 H        -6.9882700316        0.4450434353       -2.4084083927
 H        -7.1557795871       -0.9758396847       -4.2162900343
 H        -8.4376493226       -0.0332917411       -4.4677458044
 H        -9.8929164132       -1.5615324888       -7.5745353205
 H        -8.4882883922       -2.2269682506       -8.4025467935
 H        -7.2241797075        0.0286072316       -7.1245770963
 H        -8.8813703428        0.6359679063       -7.3271015609
 H        -6.5928434760       -2.0299534159       -8.7847926095
 H        -4.9228260423       -2.4665964808       -9.4222467017
 H        -6.5398945110       -2.2982136318      -10.3835154544
 H        -6.5997128199        2.4193746695      -11.2824449913
 H        -7.5896366806        1.0596304027      -12.0436053197
 H        -5.8746389203        0.9811016120      -12.0022012654
 H        -5.6043638248        1.4561321123       -8.0779383352
 H        -6.4760568925        2.7361198406       -9.0317328871
 H        -4.9715306478        2.0661776576       -9.4650266734
 H        -9.4213241177       -4.5845207168       -5.8884101469
 H        -9.6410553328       -4.5056887889       -4.0475639361
 H        -8.0942917704       -4.3103063071       -4.6826059424
 H       -11.1143438945       -2.0181779113       -6.1788182436
 H       -11.1463674931       -1.4641728958       -4.4391763499
 H       -11.4510353632       -3.1362414676       -4.9445224385
 H        -9.1620119404       -1.1714298515        1.3051512955
 H        -7.7610081399       -0.1071907821        1.1961617814
 H        -8.0044787026       -1.4142532891        0.0129027100
 H       -11.2680262457        0.1158489717        0.8232596168
 H       -11.0075997237       -1.0910178675       -0.5166375221
 H       -11.5095761848        0.5740488148       -0.7867114141
 H       -12.5943858819        4.6547722639        1.0558539935
 H       -12.9430819540        5.8645188823        0.0400897683
 H       -13.5388973191        6.2132586036        1.4811747726
 H        -9.4953055433        7.2664839473        0.1633506624
 H       -11.0336487769        7.8312534925       -0.0391725763
 H       -10.5591275575        6.2640816024       -0.8233359771
 H       -15.3678102724        7.4245495453        7.0192125045
 H       -15.0871512156        6.5394984188        5.2801556661
 H       -16.1333549854        7.9589582090        5.3309064169
 H       -14.7156971011       10.1173538811        6.7886944970
 H       -15.2450076314        9.9846153433        5.1177584136
 H       -13.5169808361       10.4656659679        5.6280325662
 H       -10.3870071919        6.6722251323       10.4528298533
 H        -9.5709953371        5.0974698300       10.6205515918
 H       -11.2840979299        5.5037974999        9.9586460174
 H        -7.3750815574        5.7477177149        9.0862235002
 H        -8.1070558971        7.1567347346        9.8043866951
 H        -7.5568691431        7.0918170304        8.1723283008
 Na      -10.1934425210        6.2437137553        4.8251618626
