117

 C       -10.5891011268        3.4403012848        7.8893268239
 C        -9.9368296961        4.6867334148        7.4191930564
 O        -9.4917165674        4.6244627073        6.3112221881
 C        -9.7317320320        5.8653074893        8.4447156154
 C       -10.1677547372        7.0949054556        7.6478557148
 O        -9.3889093952        7.6159911085        6.8513799892
 C       -11.5021463866        7.8521198854        8.0932563418
 C       -11.8056229992        8.8195808313        6.9619009534
 C       -12.5590056925        8.0830472680        5.9171073281
 O       -12.2172148981        6.9793080854        5.5810456603
 C       -13.8061931743        8.8724814702        5.3390539883
 C       -13.4542937411        8.7295588886        3.8829824605
 O       -13.7130566746        7.7122353669        3.2537874025
 C       -12.4468425368        9.7291644358        3.2378532566
 C       -12.0807765402        9.0951534005        1.9185422710
 C       -11.3263186336        7.7642479721        2.2613994082
 O       -10.5245409305        7.9269601837        3.1479498363
 C       -11.3708683007        6.5801379721        1.3462773235
 C       -10.6072382925        5.3014402046        1.7886398256
 O       -10.3213281413        5.1140104502        2.9480026163
 C       -10.1199392721        4.2797636697        0.6194615115
 C       -10.0463712512        2.8332151602        1.2092267479
 C        -8.8764542377        1.9941215500        0.5138274624
 O        -7.7806865875        2.5005242647        0.7281059700
 C        -8.8934082422        0.4511196027       -0.0296705642
 C        -8.7803125736        0.4496785072       -1.6176059106
 O        -9.4236740013        1.2366020614       -2.2502185528
 C        -7.6572970878       -0.4067470038       -2.3863260924
 C        -8.2115728584       -0.9478336524       -3.6966365527
 C        -9.3241933598       -1.9697717702       -3.5184119448
 O        -9.8498585030       -2.1063518295       -2.4309067445
 C        -9.8231357062       -2.9364611542       -4.8411205525
 C        -8.7682328444       -2.7976810142       -5.9316308981
 O        -7.8456406802       -3.5944181652       -6.1753619533
 C        -8.9546336138       -1.4883195250       -6.9117625191
 C        -7.7579294113       -0.8298824377       -7.6233052161
 C        -7.7766706671       -0.2149273793       -9.0536738233
 O        -8.6995085216       -0.2982541545       -9.8136567745
 C        -6.4664807823        0.4359920783       -9.6838892414
 C        -5.5151341151       -0.6372901788       -9.9259907126
 O        -4.5416549944       -0.7048578771       -9.1826972219
 C        -5.6163900215       -1.7567093472      -10.9251088391
 C        -6.9046619571        1.0583671866      -11.1066594912
 C        -5.7205602812        1.4652607657       -8.7699307798
 C        -9.8142004869       -4.4412553151       -4.4233855860
 C       -11.1936124420       -2.3547863664       -5.2735417353
 C        -7.6032592882       -0.2149147796        0.5934294353
 C       -10.1975556046       -0.2920764771        0.3117859953
 C       -12.8479482352        6.1437180025        1.1041916923
 C       -10.8503416414        7.0615999601       -0.1007302896
 C       -15.1339210862        8.1841832895        5.7597323480
 C       -13.9107196457       10.3783974949        5.6871613102
 C       -10.4278231435        5.5938022401        9.8390056027
 C        -8.2027266406        6.0355705221        8.6292759718
 H       -11.5583366428        3.5640472332        7.5162964617
 H       -10.7526038448        3.2194856538        8.9100693995
 H       -10.0563263522        2.5005002932        7.4737996070
 H       -11.3986906272        8.2985813453        9.1163921336
 H       -12.3545813863        7.1555643762        8.0421117476
 H       -10.8992504268        9.2366065137        6.4941548032
 H       -12.2882986311        9.6864901376        7.3874255213
 H       -11.7366218965        9.7505015492        3.9893680010
 H       -12.7974668310       10.7454768582        3.0475146305
 H       -11.4232531203        9.7051040045        1.3044353490
 H       -12.9536364761        8.8765237484        1.2493004600
 H        -8.9967579423        4.5262600794        0.3736415806
 H       -10.6994839295        4.1123048046       -0.2661145476
 H       -11.0957378729        2.4109590081        1.0199556990
 H        -9.7919595352        2.9341378764        2.2672426136
 H        -7.4389387465       -1.3117817421       -1.7092500041
 H        -6.7919325921        0.2768916181       -2.5865930743
 H        -7.5068588192       -1.4202387917       -4.4399364567
 H        -8.7493857566       -0.0777924305       -4.1844567686
 H        -9.6485951744       -0.8564406698       -6.4581848551
 H        -9.4636797174       -2.0110733833       -7.7693983527
 H        -7.0305209982       -1.5989551399       -7.6077645192
 H        -7.3950961103       -0.1246124147       -6.8568431724
 H        -5.2899907523       -2.6289269988      -10.3182343335
 H        -4.9165155815       -1.6778171806      -11.7833969147
 H        -6.6182719594       -1.8629604241      -11.2621130286
 H        -7.7388730412        0.5266406313      -11.5689359986
 H        -6.1789191910        0.8135744074      -11.8460032745
 H        -7.0928048131        2.1642721849      -10.9535304455
 H        -5.3408720980        1.0090478253       -7.8470509727
 H        -6.3842852723        2.2240153968       -8.3415784851
 H        -4.9166187303        1.9871039683       -9.3459119056
 H        -9.3130023085       -4.9850125917       -5.2945023805
 H       -10.7577568547       -4.7853368779       -4.1816876746
 H        -9.1073367590       -4.5695305697       -3.6599654656
 H       -11.3702036077       -2.6212928469       -6.3975306713
 H       -11.4147323673       -1.2668211396       -5.1157146025
 H       -11.9497187574       -2.7790995897       -4.7334883171
 H        -7.8988455066       -0.6030125336        1.6419264495
 H        -6.7173445086        0.3947116532        0.7647870399
 H        -7.1847997147       -1.1618337041        0.1533302599
 H       -10.5290327528        0.0767010421        1.3102589750
 H       -10.1601041357       -1.4196181192        0.5946104584
 H       -11.1038700368        0.0099284271       -0.2970687546
 H       -12.8748644912        5.2537117197        0.5188555580
 H       -13.2311961851        6.9176917444        0.4831759524
 H       -13.4432722891        5.8633539747        1.9809404888
 H        -9.8526062194        6.7446616269       -0.2123891768
 H       -10.9424772315        8.1076726511       -0.3440930485
 H       -11.4939804158        6.5368773448       -0.8379438158
 H       -15.9851233209        8.9307214722        5.8655614538
 H       -14.8801858799        7.5108374163        6.5467620991
 H       -15.4576514347        7.6502683847        4.8902338442
 H       -14.2389946004       10.4803810057        6.6974633620
 H       -14.6751255491       10.5780036485        4.9739193141
 H       -13.0791620644       11.0022587473        5.3942259054
 H       -10.1038473470        6.3677202781       10.5851624237
 H       -10.1841179142        4.6736557288       10.3418010615
 H       -11.5900706476        5.5183913811        9.7277764473
 H        -7.8177632886        5.1085951946        9.0413759369
 H        -7.9922937132        6.6606046022        9.4340444535
 H        -7.7064654675        6.5384569837        7.7408660453
 Na      -10.0753328009        6.3657046779        4.9190949832
