117

 C       -10.8208419811        3.3555896270        7.9082748075
 C       -10.0290950390        4.5341463337        7.4462187432
 O        -9.7223199483        4.5821610814        6.2264568105
 C        -9.7081954672        5.7422893382        8.4106895721
 C        -9.9678725322        7.1325361953        7.5975554095
 O        -9.3866103731        7.4427186445        6.5755905308
 C       -11.2182566787        7.8738194776        8.1552163349
 C       -11.8013386256        8.9137449808        7.1767843266
 C       -12.6412425994        8.3046541932        6.0654578462
 O       -12.2987164545        7.3298407706        5.3655716274
 C       -13.8126366657        9.0822852347        5.3589756667
 C       -13.5460297829        8.8499772321        3.7380573849
 O       -13.9225914246        7.8285423312        3.2900281230
 C       -12.5412718118        9.8169676588        2.9663423478
 C       -11.9319730661        9.0527806939        1.7964344177
 C       -11.3023134800        7.7232488980        2.1648037845
 O       -10.6877223490        7.6850123260        3.2119962372
 C       -11.3331081990        6.5927894208        1.0465720787
 C       -10.5870694844        5.1819396171        1.5642463837
 O       -10.2771971244        4.9963663849        2.7463456109
 C       -10.0524608206        4.2723854820        0.5504122492
 C       -10.1162641119        2.7219532042        0.7129610562
 C        -8.6359446545        2.1502937289        0.6551169294
 O        -7.6350136607        2.7536332167        0.7599805769
 C        -8.7794855460        0.5990039049        0.1796962766
 C        -8.7656869044        0.5949752492       -1.4633394588
 O        -9.3551687144        1.5151658605       -2.0063912755
 C        -7.8124121507       -0.4283324349       -2.1747376258
 C        -8.3100129946       -0.8433158511       -3.6255737747
 C        -9.4968747855       -2.0128064619       -3.5321896763
 O        -9.9208875573       -2.2557616249       -2.4477886342
 C        -9.9580602535       -2.9085019545       -4.7893783442
 C        -8.9148925021       -2.6776693307       -6.0243109047
 O        -8.1072747957       -3.5265387299       -6.1935266412
 C        -8.8737668051       -1.4623729848       -6.9583192281
 C        -7.3997414375       -1.1262510767       -7.6358065911
 C        -7.6746892059       -0.4302490424       -8.9166097481
 O        -8.8242793287       -0.5406188672       -9.3879787302
 C        -6.4831288683        0.3126975731       -9.5880877583
 C        -5.3415035956       -0.8907283615       -9.8658086525
 O        -4.6554846833       -1.3327052520       -8.9729603918
 C        -5.3560649680       -1.4569148063      -11.1667811838
 C        -7.0284751682        1.0159561031      -10.8728936738
 C        -5.9099761127        1.4538369340       -8.7976468832
 C       -10.0234244435       -4.3018245020       -4.0405118568
 C       -11.4078487662       -2.4294931157       -5.4260400024
 C        -7.5679585689       -0.0647136135        0.7798267436
 C       -10.0371411899       -0.1568296440        0.7823365074
 C       -12.7600524055        6.0430974723        0.8413549488
 C       -10.6459517271        7.1760598652       -0.1280513952
 C       -15.0983255815        8.3966812205        5.6723778511
 C       -13.7135731732       10.6565522537        5.7807522594
 C       -10.4881869737        5.6871456350        9.7168957622
 C        -8.1485269313        5.4753491921        8.6777985806
 H       -11.7089386246        3.5599331496        8.5131578660
 H       -10.1479850436        2.7935557532        8.5681039904
 H       -11.0141244626        2.6972185273        7.0898140579
 H       -10.7991260967        8.4536795336        8.9882883484
 H       -11.8591030715        7.0695967354        8.6182160142
 H       -10.8856883340        9.3286405657        6.7458605427
 H       -12.2398644782        9.7007926209        7.8068912548
 H       -11.7151777339       10.1564447271        3.7643661414
 H       -13.0897055677       10.7181684149        2.5835167783
 H       -11.0220641974        9.6441379974        1.4272350913
 H       -12.5690766948        8.9332277104        0.9029603266
 H        -9.0708770811        4.3896438670        0.5326557095
 H       -10.4884380054        4.5153067605       -0.5841130019
 H       -10.7048002778        2.2286201051       -0.0199743990
 H       -10.4939506820        2.6821854814        1.7323045483
 H        -7.5795878911       -1.2736201038       -1.6180322406
 H        -6.9705574752        0.2067129393       -2.5043287745
 H        -7.4280734453       -1.2203149546       -4.1790565144
 H        -8.7980999342        0.0295849244       -4.1135143072
 H        -9.4417419721       -0.5536416824       -6.5186683241
 H        -9.3812833627       -1.8096185615       -7.8033696138
 H        -6.9680847771       -2.1289569522       -7.9409385734
 H        -6.6644600247       -0.7741401237       -6.9478662327
 H        -4.5529543244       -2.1664065178      -11.2594984956
 H        -5.1401468686       -0.5915071060      -11.7913807970
 H        -6.3870296195       -1.7387958726      -11.4295454712
 H        -7.0395099348        0.3352695913      -11.7038799184
 H        -6.3491050893        1.7792890326      -11.2628343829
 H        -7.9397965247        1.4142561802      -10.6200809023
 H        -5.5084012059        1.0619293836       -7.8530209884
 H        -6.5785003194        2.2044162312       -8.4161920022
 H        -5.1072401258        1.8501961667       -9.3795392121
 H       -10.1280634377       -5.1407194239       -4.6573610322
 H       -10.9267641386       -4.2097980489       -3.2953711526
 H        -8.9964520136       -4.2788336296       -3.6414561259
 H       -11.3776712327       -2.1595842069       -6.4360054833
 H       -11.6727883904       -1.5182134156       -4.9635463310
 H       -12.3212548974       -3.1442971241       -5.2328632459
 H        -7.4836014385        0.0712422108        1.8233122544
 H        -6.6376250956        0.2941738764        0.2951287181
 H        -7.5062403066       -1.1665742223        0.7483483891
 H       -10.2729433242       -0.0916611085        1.8357311159
 H        -9.9209039828       -1.1338413436        0.7018838436
 H       -10.9113735781        0.1448190845        0.2393026934
 H       -12.7690251244        5.0412005468        0.3515710990
 H       -13.4002897411        6.7317512181        0.2336511997
 H       -13.0894628660        5.6714068316        1.7704971010
 H        -9.8914388957        7.9011667135        0.2448777401
 H       -11.4158318899        7.5553736049       -0.7770860960
 H       -10.1355496765        6.5268721600       -0.7832105838
 H       -15.8531479133        8.7256448891        5.0522032732
 H       -15.4360726787        8.5060071258        6.7508556714
 H       -15.0100289687        7.3762846090        5.4095479471
 H       -14.1330917795       10.6286082956        6.7922229937
 H       -14.1064996754       11.4192350532        5.0935580803
 H       -12.6149807060       10.9314301466        5.6979832205
 H       -10.2631129260        6.6320553822       10.1685527709
 H       -10.0252065083        4.9856756852       10.4313159919
 H       -11.4112713623        5.3134100842        9.7120644142
 H        -7.9367847602        4.7642588213        9.4983974840
 H        -7.6918427549        6.4147292690        9.1455278131
 H        -7.6743771247        5.4868259275        7.7093325831
 Na       -9.9303031957        6.3289322810        4.6801538189
