117

 C       -13.1888254217        7.2471834046       -5.4805940751
 C       -12.2283350621        7.1880192564       -6.6867705185
 O       -12.1077426139        8.1221359695       -7.4250757244
 C       -11.4238024771        5.7678632452       -6.9496236166
 C       -10.5629404249        5.5914268725       -5.6451315817
 O       -10.8847429921        4.7692160342       -4.8462869124
 C        -9.1373666823        6.2765102890       -5.4347512397
 C        -8.1799325638        5.1525569523       -5.0390953110
 C        -7.8869272713        5.1064238509       -3.5837161632
 O        -8.5188295215        5.8034105372       -2.8194916805
 C        -6.8490631354        4.0920875787       -2.7592416200
 C        -6.0021665120        4.7924642921       -1.5652696689
 O        -4.8058564732        4.5572298648       -1.5558889353
 C        -6.6300263103        5.6801989916       -0.4628455178
 C        -5.8997596207        5.6078565578        0.8786488526
 C        -6.5318475501        4.5406981111        1.7905154326
 O        -7.3660254928        3.6820747654        1.5065479706
 C        -6.0453069350        4.4481505593        3.2624247304
 C        -6.7130186616        5.5876954819        4.0323754500
 O        -6.8323862439        6.6813985219        3.4946200334
 C        -7.2721307187        5.3555896909        5.4485932242
 C        -8.7605917982        5.8513538326        5.4120265190
 C        -9.5922751421        4.8985427761        4.5669015777
 O        -9.4318314028        3.7072981570        4.6903920714
 C       -10.6574455794        5.5085943204        3.4964102871
 C       -11.5858253952        4.3412285627        3.0189953085
 O       -11.0118512701        3.3217368780        2.6821294322
 C       -13.1386843965        4.3139026253        3.2554930648
 C       -13.7170116811        3.0073110119        2.6794030097
 C       -14.0060603557        3.1475097266        1.1296881708
 O       -13.7260377493        4.1425692121        0.5020712677
 C       -14.4324577385        1.7196398458        0.4766037384
 C       -13.0784261343        0.8395558924        0.4029162956
 O       -12.7286460573        0.3852784134        1.4222826218
 C       -12.3295660674        0.7539732571       -0.9642390595
 C       -11.2175243953       -0.3327216238       -0.8971582616
 C       -10.0065142002        0.1370955278        0.0362639825
 O        -9.7635989556        1.3025115426        0.1917534302
 C        -9.0596901089       -0.8395558037        0.8236487494
 C        -9.4608237201       -0.7388262300        2.3613399641
 O        -9.3426111804        0.3391779996        2.8387523654
 C       -10.1084632960       -1.8656746738        3.0257074711
 C        -9.0424934427       -2.2591027035        0.2343356118
 C        -7.6072258931       -0.2761783224        0.7050048477
 C       -15.3716371597        0.8967686868        1.5087045732
 C       -15.1350484040        2.1467249039       -0.9025158492
 C       -11.3775435128        6.7046816917        4.2218088620
 C        -9.7867351024        5.9294558637        2.2899618549
 C        -6.3246128725        2.9931827410        3.8976909859
 C        -4.5029580200        4.7104626155        3.3838545134
 C        -7.7409973198        3.0551217950       -2.0407799914
 C        -5.8962583249        3.4810337819       -3.7408820327
 C       -12.4365217644        4.6249458910       -7.0958728949
 C       -10.5173581194        5.7790777044       -8.2132606894
 H       -12.8415761091        6.4756906453       -4.7320343092
 H       -14.2530103167        7.1252267704       -5.7171520503
 H       -13.0117318827        8.1778750663       -4.9507322517
 H        -9.1449401135        7.0264330127       -4.5640869988
 H        -8.7575308589        6.8085387169       -6.3330626601
 H        -7.3341140661        5.2678602642       -5.6672548560
 H        -8.5365796454        4.2018877684       -5.3326338579
 H        -7.6568745486        5.3487460015       -0.3540849011
 H        -6.8015958634        6.6537534869       -1.0184356429
 H        -5.9291671867        6.4716388265        1.5587814963
 H        -4.9071818179        5.1588670202        0.6901883201
 H        -6.7965185687        6.0699392153        6.1993297755
 H        -7.2269149744        4.3146605484        5.7986771591
 H        -8.9377142948        6.9226454897        5.1585352028
 H        -9.1236215176        5.7468876277        6.4418012984
 H       -13.5568313689        5.1086688406        2.6130157124
 H       -13.4400658321        4.4838570406        4.2645160762
 H       -14.6511475465        2.6842743986        3.1394307353
 H       -13.1332365830        2.1184632053        2.7029056560
 H       -11.9917815512        1.7934785723       -1.1349026067
 H       -13.0235440363        0.5610418422       -1.7831440838
 H       -10.7889614635       -0.5386037025       -1.8131537009
 H       -11.6368077299       -1.2788168055       -0.5771482820
 H       -10.3654990355       -1.7130623504        4.1120706920
 H        -9.3875719430       -2.6908105686        2.9150009390
 H       -11.0111765825       -2.2103170612        2.5772147516
 H        -8.8664427955       -2.1659150480       -0.8117003027
 H       -10.0662542674       -2.6989912052        0.3764270595
 H        -8.2755679350       -2.9095621943        0.6806018647
 H        -7.6437868928        0.7199921533        1.0982161392
 H        -7.2750761560       -0.0613615720       -0.2962778397
 H        -6.9427369088       -0.9534119912        1.2778296687
 H       -14.9199864066        0.5319657966        2.4639181590
 H       -15.6545157476        0.1167301918        0.8616819941
 H       -16.2252311616        1.4268981731        1.8339389982
 H       -16.1883950622        1.7847702213       -0.9636167750
 H       -14.6740467312        1.7068597628       -1.7414082026
 H       -15.2944863312        3.2334510118       -0.9779849073
 H       -10.6219730351        7.4494633305        4.4402337674
 H       -11.7922717822        6.3420127795        5.1377280653
 H       -12.2283023110        7.1685213994        3.6484710708
 H        -8.7585367454        5.8582850334        2.4852232019
 H        -9.9563214520        6.9713841152        2.0257066595
 H       -10.1349233135        5.4244275122        1.4520214167
 H        -5.8566869894        2.9401637440        4.8552070123
 H        -5.7811963950        2.2406423279        3.2822370758
 H        -7.3676296114        2.6613289534        4.1862511073
 H        -3.9070581972        3.8421818359        3.4651777641
 H        -4.0885287414        5.2650209996        4.2380876987
 H        -4.1442644497        5.4191990733        2.5834826111
 H        -7.7798460874        2.2083971826       -2.6830842199
 H        -8.7282570593        3.4515701155       -1.9324788808
 H        -7.4132705818        2.7359223142       -1.0228316846
 H        -6.4047040457        2.6584928477       -4.3383216474
 H        -5.1142453431        2.9343489435       -3.1922168637
 H        -5.5749763623        4.1736609877       -4.5339392398
 H       -13.4087433138        4.8429018607       -6.6156099690
 H       -12.0508818459        3.7494697438       -6.5288036756
 H       -12.5405924101        4.3104918806       -8.1754271938
 H        -9.9813009636        6.6784140304       -8.1548703713
 H       -11.2385658555        6.0540704363       -8.9767532848
 H       -10.0055426048        4.8770198800       -8.5610197015
 Na       -9.1887877009        2.5328689052        2.0515028821
