117

 C       -11.0387266910        3.0584175074        7.9883354610
 C       -10.4317259119        4.3743909748        7.4540376130
 O       -10.3190274177        4.2790152593        6.2357931703
 C        -9.7854720348        5.5737341837        8.3086623594
 C       -10.0659635854        6.9560750771        7.6156932946
 O        -9.3388304738        7.2336737753        6.6238715461
 C       -11.0300048203        7.9597189639        8.1439825303
 C       -11.5640064674        9.0491949240        7.2527275720
 C       -12.3101932138        8.4702303106        6.0123095807
 O       -12.0619138838        7.3407538959        5.6764365800
 C       -13.5053870362        9.3250288104        5.2080827336
 C       -13.5957981612        8.9735890751        3.6412431323
 O       -14.4554155973        8.3309452499        3.0852279509
 C       -12.6190717398        9.8130067480        2.6923622955
 C       -12.1560156838        9.0248254400        1.5149358155
 C       -11.2714510559        7.7924711748        1.9297936405
 O       -10.7934732551        7.8102826645        3.0495434291
 C       -11.0528970567        6.7225296398        0.8167953585
 C       -10.3451105562        5.3426211384        1.2159680882
 O       -10.3367117476        5.0302550186        2.4206232506
 C        -9.7511320372        4.4331583217        0.1643957302
 C        -9.9746116886        2.9804774244        0.4392925171
 C        -8.5700752639        2.2534581473        0.6496650228
 O        -7.6171759141        2.9559370986        0.9383192819
 C        -8.5961517193        0.7652982658        0.3249067308
 C        -8.7306506148        0.6431867952       -1.2373453374
 O        -9.3949855649        1.4358678729       -1.8765468440
 C        -8.0734748621       -0.5423359560       -1.9393489587
 C        -8.8037203147       -0.8280018961       -3.2983303643
 C        -9.7268526242       -2.0726209637       -3.2764217962
 O       -10.4426895394       -2.0373650574       -2.2905864918
 C       -10.0265756294       -2.8694889612       -4.5321854197
 C        -8.8472555887       -2.6910081166       -5.6913190109
 O        -8.1068850429       -3.5490516366       -6.0240116893
 C        -8.6160200126       -1.4097453386       -6.4549366913
 C        -7.4883222605       -1.5522565227       -7.5132634686
 C        -7.8285862744       -0.7973530713       -8.8377243305
 O        -9.0356168985       -0.6784124529       -9.1330573269
 C        -6.6960701839       -0.0069836807       -9.5588786285
 C        -5.4084127282       -1.1416248732       -9.8818970693
 O        -5.0644571462       -1.9426852546       -9.0847723164
 C        -4.5432828120       -0.9213382281      -11.1524534526
 C        -7.1368604650        0.9003296788      -10.6628962796
 C        -5.9466341081        0.9983530103       -8.5263481939
 C       -10.3752671403       -4.3839205807       -4.2074038760
 C       -11.1732549793       -2.0098204519       -5.1104062230
 C        -7.2081032944        0.2841840142        0.8019364671
 C        -9.6785128006       -0.2076291789        0.9380584893
 C       -12.4938682837        6.2151427407        0.4635939679
 C       -10.4329421304        7.3777207130       -0.3634619493
 C       -14.7570007311        8.7135873154        5.9240696378
 C       -13.4115252639       10.8751513174        5.2937545870
 C       -10.2907305588        5.5945619322        9.7852220014
 C        -8.1815445568        5.3313757136        8.2064019048
 H       -11.4526928183        2.9587187468        9.0092098657
 H       -10.2553496715        2.3099805523        7.9814223026
 H       -11.7597344187        2.7279486824        7.3115808834
 H       -10.2639700200        8.4197324101        8.8345026743
 H       -11.6203380902        7.4312313375        8.8907719127
 H       -10.7178496652        9.5850061862        6.8672804358
 H       -12.1184998783        9.6592172858        7.9673336833
 H       -11.6287445623        9.8969654552        3.2201947762
 H       -13.0867456815       10.6993180777        2.3917413528
 H       -11.4580907743        9.7251429470        0.9842683927
 H       -12.9567900544        8.7078173816        0.8299501828
 H        -8.6406084443        4.6378294438        0.0330412701
 H       -10.2421871433        4.5018318373       -0.9927656102
 H       -10.5648115837        2.5768537419       -0.3338280272
 H       -10.4679654576        2.9792240874        1.4964856074
 H        -8.0526518259       -1.5173272282       -1.3507524804
 H        -7.1447516628       -0.0545727599       -2.3212273242
 H        -8.0062211081       -0.9348560418       -4.0719276944
 H        -9.5803034639       -0.0248952344       -3.3569982245
 H        -8.5855355793       -0.4725732638       -5.9687624853
 H        -9.4754742372       -1.4113584413       -7.1713236764
 H        -7.4498946245       -2.6153080839       -7.6474786084
 H        -6.4896860810       -1.3416777643       -7.1531136632
 H        -3.5522122600       -1.2551299862      -10.9871663091
 H        -4.5583094030        0.1051069266      -11.3449068351
 H        -5.1748721567       -1.3111105534      -12.0248026557
 H        -8.0310809036        0.5019306058      -11.2105745281
 H        -6.2286468305        1.0288868503      -11.3561930269
 H        -7.3265297510        1.8892199933      -10.2317687526
 H        -5.2736311442        0.5832164496       -7.7712545582
 H        -6.7211470170        1.6400485728       -7.9574811572
 H        -5.3342436578        1.6606285383       -9.1383920426
 H       -10.7239243673       -4.7739639650       -5.0627427606
 H       -11.3341752160       -4.2386325010       -3.6351746858
 H        -9.5350126460       -4.9479061616       -3.8583228372
 H       -11.5204503855       -2.4543492583       -5.9703961630
 H       -10.8222326206       -1.0591865485       -5.4990035468
 H       -12.1487412068       -1.9384456622       -4.4321569815
 H        -6.8608790749        0.7308641546        1.7594611101
 H        -6.3609774773        0.5354677455        0.0619008939
 H        -6.9922105146       -0.7598998007        1.0550957896
 H        -9.2431002382       -0.5361168960        1.9881624106
 H        -9.5733243424       -1.1795290730        0.4547941279
 H       -10.8041646273       -0.0634962589        0.9888092907
 H       -12.5840826304        5.5263799780       -0.3809480286
 H       -13.1371649027        7.0353417169        0.4070289404
 H       -12.7234792541        5.5371750318        1.2613611439
 H       -11.0791640726        8.2022628155       -0.7405863681
 H       -10.1843919099        6.6274170574       -1.1134668554
 H        -9.5337985643        7.8876994859       -0.0849735164
 H       -15.5330419796        8.4524147123        5.3099645072
 H       -15.1907359876        9.5130344656        6.5799716363
 H       -14.4862049372        7.8871927848        6.5721616826
 H       -13.4152648361       11.1781328451        6.3175432624
 H       -14.2955539162       11.3434231634        4.8140671823
 H       -12.5944067066       11.1942664228        4.7170875264
 H        -9.6324206160        6.3297195116       10.2860796725
 H       -10.0763922587        4.5579977418       10.2375859271
 H       -11.3530379230        5.5687989612        9.9444314869
 H        -7.9937648137        4.2405130872        8.3181245388
 H        -7.5496700458        5.9882665083        8.9140147507
 H        -7.9911040385        5.6354364954        7.2195770270
 Na      -10.0378130540        5.9196865745        4.5284300520
