117

 C       -11.0898658287        3.0811236573        8.1717191332
 C       -10.5138543058        4.2775808490        7.4148314167
 O       -10.5089886943        4.3885490280        6.1802565841
 C        -9.8630886462        5.4513681082        8.1836487265
 C       -10.0923080118        6.9550399667        7.4965937701
 O        -9.5423712011        7.2368084952        6.4816657942
 C       -11.0566071070        7.9794178034        8.1981844529
 C       -11.3913245128        9.0722067464        7.0776083077
 C       -12.1774263489        8.4911275813        5.8825066454
 O       -12.0721909138        7.3296104648        5.4584552623
 C       -13.3945502445        9.2829309076        5.2708686259
 C       -13.5433623517        8.9922421130        3.6887889198
 O       -14.4812619213        8.4865279144        3.1985111476
 C       -12.4420193339        9.7763864433        2.8019184254
 C       -12.1664006292        9.0367392844        1.5090540607
 C       -11.2870627559        7.7377572867        1.8578286635
 O       -10.7857633096        7.7810747409        2.9429707656
 C       -11.0536560875        6.7779330911        0.7109477299
 C       -10.2512190940        5.5284575544        1.1660994370
 O       -10.2860253160        5.1913786899        2.3518994112
 C        -9.7205147048        4.5193397607        0.1152235099
 C        -9.9459299921        3.0072078856        0.5335805850
 C        -8.6248651651        2.3111243638        0.7212513075
 O        -7.6148080113        2.8561164239        1.0289515234
 C        -8.4616378180        0.7818159436        0.3722044005
 C        -8.7489625184        0.6135286978       -1.2706723903
 O        -9.3994330873        1.4506540290       -1.8594572365
 C        -8.0090043683       -0.4969983965       -1.9303338603
 C        -8.5933825853       -1.0591364299       -3.1942622590
 C        -9.9023936566       -1.9803491377       -3.0514671032
 O       -10.6501817797       -2.3293115302       -2.1848930243
 C       -10.0567697981       -2.7011727344       -4.5749179410
 C        -8.7725990276       -2.7787098454       -5.5881467907
 O        -8.1506046846       -3.8179606784       -5.6831184962
 C        -8.6565914675       -1.4431772533       -6.4410900080
 C        -7.6224603411       -1.5508303764       -7.5396138184
 C        -7.8964174795       -0.7567043362       -8.7327546372
 O        -8.9782445490       -0.6900163075       -9.3050368488
 C        -6.5929183529       -0.1275007691       -9.5489647922
 C        -5.4572288139       -1.0930889407       -9.8675717453
 O        -5.2818005014       -2.0858602801       -9.1681405365
 C        -4.4422073351       -0.6948520955      -10.9638416558
 C        -7.1748837950        0.7784576985      -10.6651615202
 C        -5.8509524214        0.7959703010       -8.5046249631
 C       -10.5057225917       -4.1114429763       -4.1669089035
 C       -11.2808222017       -1.9972940211       -5.2296496407
 C        -7.0038273075        0.4067624075        0.7218384663
 C        -9.5243847644       -0.0662286863        1.1104090968
 C       -12.5555184528        6.1204078342        0.2565204779
 C       -10.3683911356        7.5835179339       -0.4213101771
 C       -14.6370539746        8.7116976589        6.0307491007
 C       -13.1117446947       10.8127446212        5.2958157818
 C       -10.1885417869        5.5393345634        9.6717794467
 C        -8.3551708017        5.1887180651        8.1064487202
 H       -11.2447946144        3.2998505411        9.1367675682
 H       -10.2703943390        2.4603066279        8.2783884217
 H       -11.9451579420        2.4660394937        7.8111939724
 H       -10.5619225367        8.2006877811        9.1567128336
 H       -11.8829931601        7.3458125494        8.6087804055
 H       -10.5097225784        9.5279539500        6.6603616018
 H       -12.0351447496        9.7736870285        7.5916662468
 H       -11.4493613967        9.7773303295        3.3564736558
 H       -12.9149745558       10.7520979760        2.5459984787
 H       -11.5506614598        9.7039902342        0.8082848824
 H       -13.1684156003        8.7908809879        1.0652609394
 H        -8.7017862565        4.6833172349       -0.0633954523
 H       -10.1943704976        4.3828826376       -0.9383814225
 H       -10.4745727504        2.5565248481       -0.3153742224
 H       -10.4478731211        2.9181057089        1.5029455371
 H        -7.9744477771       -1.2884175182       -1.2581224647
 H        -7.0564434231        0.0542674661       -2.2660359401
 H        -7.8850577896       -1.8543980016       -3.5369396334
 H        -8.8559661425       -0.1793469401       -3.8472850690
 H        -8.1543915649       -0.6983571148       -5.7502366323
 H        -9.4936226696       -0.9934211101       -6.7974079851
 H        -7.4683927799       -2.6181129206       -7.7620231821
 H        -6.6811038069       -1.2606739162       -7.1613408004
 H        -3.4837231070       -1.1606374088      -10.7473776542
 H        -4.3638442131        0.3957279392      -10.8998691082
 H        -4.8718604575       -0.8485569924      -11.8912271324
 H        -8.2327446597        0.4056467723      -10.7957178915
 H        -6.5785334505        0.7289447778      -11.6079463403
 H        -7.1928391718        1.8206260510      -10.3685277854
 H        -5.0378469005        0.3883492938       -7.8097149120
 H        -6.5681276071        1.3823731530       -7.9458678670
 H        -5.2796108668        1.5163333126       -9.1158541774
 H       -10.5626148039       -4.7290786789       -5.0715172157
 H       -11.5456412835       -3.9600135316       -3.8565033638
 H        -9.7777025980       -4.5087474779       -3.4701927627
 H       -11.9163696480       -2.7425247223       -5.8357010115
 H       -11.1470947615       -1.1944557424       -5.8961769961
 H       -11.9759535677       -1.7494262030       -4.4627326947
 H        -6.8794660651        0.4074883669        1.8246143550
 H        -6.1296189759        0.9553997530        0.3547024184
 H        -6.7088609829       -0.6986046685        0.6288669827
 H        -9.4148407699        0.0165938345        2.1807778752
 H        -9.6216453148       -1.1185652714        0.8925398256
 H       -10.5891366083        0.3202320303        0.8295759388
 H       -12.3946626717        5.2557362112       -0.3568454100
 H       -13.1851093309        6.9337025977       -0.1768846601
 H       -13.0044253649        5.7008143808        1.1355494832
 H       -11.0661797110        8.0441122938       -1.1682177154
 H        -9.5497067827        7.0778869549       -0.8778420787
 H        -9.9889684657        8.4321863890        0.0845006484
 H       -15.4761081819        8.6819509473        5.3619102542
 H       -14.9902077890        9.4620080662        6.6553947014
 H       -14.4910999944        7.8869304947        6.5617814126
 H       -13.3047892155       11.1873305472        6.2996664512
 H       -13.7062379330       11.4082980483        4.6749031289
 H       -11.9983468444       10.9480043727        5.0239003033
 H        -9.7109566182        6.4629053419       10.0645230585
 H        -9.6632341391        4.6783343348       10.1527611485
 H       -11.1709169718        5.3353861134        9.9351511611
 H        -8.0811785042        4.0619287684        8.2194024114
 H        -7.8657536322        5.8766516668        8.8049328005
 H        -8.0873914885        5.5897421771        7.0072963656
 Na      -10.2248714593        5.9546405729        4.5258351020
