117

 C       -11.7181059584        3.2059214555        7.8205691128
 C       -11.2104873684        4.3065137194        7.0056249869
 O       -11.8064411041        4.5543434529        5.9619718891
 C        -9.8097332710        5.0831989532        7.4466498874
 C        -9.9144590467        6.4776234903        6.6936002251
 O        -9.3205183945        6.5977055026        5.6733802685
 C       -10.8085103715        7.6281565483        7.2717207038
 C       -10.9313969334        8.7170598760        6.2699085851
 C       -12.1965040106        8.6151615327        5.3942920708
 O       -12.6136712416        7.5256364958        5.0116914532
 C       -13.0325050933        9.9562889776        5.1863625869
 C       -13.4795473671        9.7903423554        3.6888482420
 O       -14.6440862109        9.5329417237        3.4509990193
 C       -12.3823558841        9.8594141310        2.7002706504
 C       -12.5049872057        8.7908715952        1.6214104158
 C       -11.2646056909        7.8776374798        1.7913895491
 O       -10.5422149543        7.7757414407        2.8017886003
 C       -10.8462659590        7.0294963702        0.5881255512
 C       -10.4185601934        5.6036690148        1.1562620015
 O       -10.7314298584        5.1093167272        2.2399988960
 C        -9.5184533621        4.7315606563        0.2559062208
 C        -9.6262960756        3.2689195993        0.5403696316
 C        -8.2640398901        2.5865173892        0.4723597870
 O        -7.2618722408        3.3050074509        0.5050082343
 C        -7.9851498661        0.9923754538        0.6348654643
 C        -8.3107045639        0.3220507936       -0.7675446869
 O        -8.5276618872        1.0370452876       -1.7442811170
 C        -8.5015438120       -1.1888581429       -0.7729590012
 C        -8.2971764385       -1.7569399213       -2.1894104946
 C        -9.7462206205       -2.2236251000       -2.8056080956
 O       -10.6636884607       -2.2464373517       -1.9910027620
 C       -10.3286881319       -2.3519226918       -4.2522994404
 C        -9.0594984057       -2.6232995883       -5.2307459011
 O        -7.9258216227       -2.8164711988       -4.6541019295
 C        -9.1984072173       -2.6803895650       -6.7616214136
 C        -7.9174577838       -2.3238771625       -7.5668143309
 C        -8.0836474097       -1.3575022028       -8.7515943358
 O        -9.1056430144       -1.1028285877       -9.2773273563
 C        -6.7269912154       -0.5228903868       -9.0224629387
 C        -5.6811317737       -1.5862131704       -9.5175463589
 O        -6.0220888195       -2.2386736522      -10.4642655733
 C        -4.2334287203       -1.8500400542       -9.0471765647
 C        -7.0712242270        0.4998520983      -10.1017259587
 C        -6.4726006638        0.2726517479       -7.6367001807
 C       -11.4224751512       -3.4983196248       -4.2008490146
 C       -11.1135980541       -1.0347036257       -4.7500113394
 C        -6.5372495097        0.9292744659        0.9148745460
 C        -8.9191076889        0.5188315101        1.7541454064
 C       -11.9565718677        6.6755797529       -0.3121025528
 C        -9.6584329729        7.6292004993       -0.0923678694
 C       -14.1581986099        9.9756201446        6.1491462495
 C       -12.1427479587       11.2015808993        5.4075482342
 C        -9.6299394071        5.2215808542        9.0327404240
 C        -8.5812051152        4.2703027072        6.9500173623
 H       -12.4026287476        2.6385306489        7.1172734284
 H       -12.1980049531        3.5988945544        8.7434847773
 H       -11.1216581971        2.3916457893        8.0873283851
 H       -10.1642485440        7.9097583154        8.0892291863
 H       -11.7223529087        7.1994380282        7.6855105022
 H       -10.0503109818        8.8548183241        5.6234657405
 H       -11.1119768191        9.5720724954        6.9406958122
 H       -11.3997708174        9.7462439812        3.0665397665
 H       -12.3123565199       10.8622235503        2.2659108557
 H       -12.7104647536        9.0798162069        0.5798999724
 H       -13.4505825004        8.3452683014        1.8639146224
 H        -8.2836950159        4.9711525909        0.3550598192
 H        -9.5180852390        4.8216912081       -0.7463309275
 H       -10.4735617276        2.7630517955       -0.0864767369
 H        -9.9956216523        3.0625356233        1.5469576200
 H        -9.6016334852       -1.2692942819       -0.5568299931
 H        -8.0082612799       -1.9356533545       -0.0105945940
 H        -7.6639299140       -2.6820716240       -2.0939951758
 H        -7.8854469056       -1.0601569762       -2.9527933731
 H       -10.1081141560       -2.0499855978       -7.0206305163
 H        -9.5185510858       -3.6351429467       -7.0422931715
 H        -7.6478805285       -3.3369885263       -7.9814553605
 H        -7.1467079555       -2.0372069436       -6.8750240057
 H        -4.2239831999       -2.2607197496       -8.0079173867
 H        -3.7189519399       -0.8761338637       -9.1630845590
 H        -3.9216405339       -2.6851433158       -9.6470052572
 H        -6.1818720655        1.1516892029      -10.2720928471
 H        -7.9294298141        1.0425084834       -9.8110081274
 H        -7.2787107892        0.1065542114      -11.0983507868
 H        -6.5115063594       -0.4016525611       -6.7609360278
 H        -7.1396913234        1.0564960041       -7.5072742771
 H        -5.4624902816        0.6711155019       -7.7632808982
 H       -11.2780116187       -4.0307627455       -5.1926124862
 H       -12.3316389545       -3.1362731838       -3.9427907895
 H       -11.2193608178       -4.0933665528       -3.3524786741
 H       -11.6117321779       -1.3565107001       -5.6263630470
 H       -10.5317821562       -0.1203867160       -5.0874104970
 H       -11.8658195380       -0.6766376407       -4.0194915167
 H        -6.3397235726        1.2272067155        1.9801331871
 H        -5.8059373249        1.5089395928        0.3754161131
 H        -6.0381984281       -0.0137647124        0.8405682057
 H        -8.6698079255        1.1700025647        2.6374026393
 H        -8.6812065484       -0.5522344384        2.2348737960
 H        -9.9489054955        0.8241451463        1.4860895494
 H       -11.7005009678        6.1334780743       -1.1879684531
 H       -12.5165659820        7.5659800711       -0.6462625430
 H       -12.7309843344        6.2404001107        0.3871699285
 H        -9.4703218480        6.9771392184       -0.9502918395
 H        -8.7324186513        7.6073545842        0.5542987520
 H        -9.7135212681        8.7228146768       -0.4115137347
 H       -13.8873087669        9.3798284812        7.0006391490
 H       -15.1950248045        9.6744284477        5.8905698149
 H       -14.2605188049       10.9940750203        6.6622424939
 H       -12.3776269464       11.7142448906        6.3198870464
 H       -12.3516507469       11.9770358609        4.6770605490
 H       -11.0557115524       11.1564450560        5.4548502257
 H        -8.7001884375        5.7691430427        9.3092448381
 H        -9.5273881237        4.3028634580        9.5642501810
 H       -10.4436475278        6.0296536688        9.3389214060
 H        -8.6419103971        3.2684342930        7.3389440133
 H        -7.6603465900        4.7061009900        7.4568244939
 H        -8.4554891845        4.2276250506        5.9294525904
 Na      -11.0108579774        6.1494396959        4.2140004461
