117

 C       -11.8504518855        3.2531017782        7.8420490859
 C       -11.2533682872        4.3082084983        6.8839973854
 O       -11.7687387142        4.6164935440        5.8013995313
 C        -9.9116259802        5.0827835075        7.2719446643
 C        -9.9118316252        6.4850307049        6.6138766585
 O        -9.3559752501        6.7167134201        5.5322773658
 C       -10.8081250802        7.5563680966        7.2143785986
 C       -10.8439631351        8.7116733305        6.2187044221
 C       -12.2341402380        8.6095236549        5.4596559836
 O       -12.7122219180        7.5872240095        5.0508930456
 C       -12.9314930250       10.0054415943        5.2915037243
 C       -13.4581053214        9.9931510961        3.7129647249
 O       -14.5802776218        9.7266209218        3.4288734303
 C       -12.4081641870       10.1066598538        2.6202920536
 C       -12.4336216355        8.8050110439        1.7126334969
 C       -11.2605682045        7.8759746322        1.7634450308
 O       -10.7069997926        7.9396095269        2.8547338957
 C       -10.8646899907        6.8370323014        0.5735081007
 C       -10.4502900736        5.5534317012        1.2255080392
 O       -10.8463079055        5.0794343473        2.2783009841
 C        -9.5135159636        4.7363622109        0.4127591112
 C        -9.5234579883        3.2026442449        0.6578739269
 C        -8.0896686704        2.7033596581        0.5767532847
 O        -7.1997592489        3.4942996820        0.2583756968
 C        -7.8748602038        1.1792582207        0.6747446818
 C        -8.3012899936        0.3811723731       -0.7097989709
 O        -8.4279910297        0.9482787399       -1.7612927838
 C        -8.6357355240       -1.1580747483       -0.7462539004
 C        -8.5107766106       -1.7864874587       -2.1379824907
 C        -9.9123842973       -2.0934597758       -2.7038998684
 O       -10.7869122338       -2.3259808169       -1.8661462099
 C       -10.1897606702       -2.3166308753       -4.2725524617
 C        -9.0238385451       -2.5850697521       -5.2940713303
 O        -7.9189428375       -2.6905778430       -4.8520649765
 C        -9.2801281335       -2.6571905972       -6.7718306604
 C        -7.9182406438       -2.6362706745       -7.6441168402
 C        -8.0157513621       -1.4317133302       -8.5149624857
 O        -9.0549604480       -1.2333007245       -9.2043347013
 C        -6.8052213596       -0.5346390672       -8.8369759006
 C        -5.7919402176       -1.6260862447       -9.4567488483
 O        -6.2143800365       -2.1372515809      -10.4480527113
 C        -4.4528998792       -2.0274911410       -8.7378095874
 C        -7.1885397665        0.3248515582       -9.9978059913
 C        -6.3297727669        0.2388178211       -7.5554256971
 C       -11.3053931303       -3.4186234336       -4.2360375812
 C       -10.7326552331       -0.9491597331       -4.5761259141
 C        -6.4131580769        0.8073638582        0.9893174139
 C        -8.9951723018        0.5883697134        1.5902423701
 C       -11.9811290229        6.6250568415       -0.6009115354
 C        -9.4621198448        7.4127587257       -0.0641749983
 C       -14.0510918291        9.9428036248        6.3082785549
 C       -11.8837309575       11.1898726066        5.4007618426
 C        -9.7816687677        5.1194466238        8.7486962235
 C        -8.6626907491        4.3136134857        6.7403618687
 H       -12.2687324791        2.4583002159        7.3065043329
 H       -12.4679175059        3.7337422513        8.5678715661
 H       -11.1834040340        2.7043087431        8.4133826619
 H       -10.1242456053        7.7266337239        8.0633966066
 H       -11.7104865423        7.0665542102        7.5638349624
 H       -10.1372121737        8.5296738194        5.3902327359
 H       -10.6009310789        9.5854833445        6.7495045853
 H       -11.3268001681       10.3704238439        2.7817691402
 H       -12.6371997141       10.9760859371        1.9075532728
 H       -12.7653766329        9.0058436990        0.6846346408
 H       -13.3956002110        8.3229085332        2.0694376082
 H        -8.5125461988        5.0731958841        0.6124294176
 H        -9.4238499686        4.9794268555       -0.7462572289
 H       -10.1983361966        2.5996808240       -0.0569402113
 H       -10.0318825384        2.9337186013        1.6189669605
 H        -9.6766958682       -1.3291188773       -0.2754409629
 H        -8.0065438672       -1.7866200177       -0.1906205247
 H        -8.1200897807       -2.8583081138       -2.0282609104
 H        -7.8416812387       -1.2173478113       -2.8735241920
 H        -9.9309049865       -1.8819845520       -7.0097409303
 H        -9.9260023653       -3.5276318276       -6.9833947082
 H        -7.8588981053       -3.5805436602       -8.1344421993
 H        -7.1199525682       -2.5288040755       -6.9297079785
 H        -4.6235397629       -1.7316805324       -7.7322725123
 H        -3.7728604120       -1.3566239751       -9.1562287813
 H        -4.2407969203       -3.1539725267       -8.6769360459
 H        -6.2213687520        0.4199865759      -10.4800620293
 H        -7.6127795028        1.3017646163       -9.8110966946
 H        -7.7639131618       -0.1620474249      -10.8239608350
 H        -6.6841793479       -0.4083193926       -6.7906407086
 H        -6.8703609408        1.2003218459       -7.3820856298
 H        -5.2190871934        0.3367665967       -7.5228421381
 H       -11.1165562353       -4.0864862038       -4.9770483632
 H       -12.3273697045       -2.9249818007       -4.2212012303
 H       -11.2960724924       -3.8319927162       -3.2359385719
 H       -10.8828123072       -0.6998900039       -5.5622058805
 H       -10.0224750308       -0.1830050492       -4.2532823241
 H       -11.6737342061       -0.7753574853       -3.9003077128
 H        -6.0880707728        0.9487303775        2.0641089693
 H        -5.5582705239        1.3776900667        0.4677445293
 H        -6.0396371964       -0.2057918289        0.7865263865
 H        -8.9266738132        1.2078116561        2.5807965144
 H        -8.5266221888       -0.2735410770        2.0117519310
 H       -10.0449683299        0.6290101410        1.1896667536
 H       -11.5843718082        5.9449635376       -1.3761718668
 H       -12.3455922792        7.4866014981       -1.1247617592
 H       -12.8619487129        6.2150313380       -0.0524526598
 H        -9.3343683740        7.2557498278       -1.1478338121
 H        -8.5090502092        7.1720793280        0.4829020819
 H        -9.5363013133        8.5196985198        0.0995450861
 H       -14.0613868690        9.2158950620        7.0205205911
 H       -14.9836894920        9.7892334562        5.7519928393
 H       -14.1420317218       10.7789979585        6.8320949728
 H       -11.7520110806       11.4555939848        6.4328249220
 H       -12.1653554482       12.1938421209        4.9551281012
 H       -10.9296105007       11.0616324425        4.9995532663
 H        -8.7885510399        5.4286217088        9.1267794258
 H        -9.9145120479        4.0935920312        9.2441678061
 H       -10.4747887460        5.9361847603        9.0620523913
 H        -8.2967446080        3.3662728234        7.2926666711
 H        -7.8484181388        5.0883218552        6.9656407080
 H        -8.6858036332        4.2384460620        5.6429342302
 Na      -11.0131744684        5.9457969023        4.1795997770
