117

 C       -12.1959762441        3.4096890870        7.5588235319
 C       -11.4240592129        4.1734397501        6.5672103822
 O       -11.8131620183        4.1418037171        5.3968575702
 C        -9.9575940495        4.7507141319        6.9426768734
 C        -9.9427909883        6.2283836872        6.3553423266
 O        -9.4334124932        6.4387550464        5.2551940327
 C       -10.5520351463        7.4539123863        7.1547336314
 C       -10.7648871946        8.9490175795        6.4410885732
 C       -11.9555739333        9.0220572714        5.4983512584
 O       -12.3360784531        8.0234908754        4.9491034269
 C       -12.6496793639       10.3006630835        5.1276450627
 C       -13.3319240793       10.2104651734        3.6390230768
 O       -14.5284469775       10.3655458632        3.4605905872
 C       -12.3839967600       10.3678354895        2.4331097363
 C       -12.5347597343        9.0588721539        1.5305848657
 C       -11.4886648252        7.9393938943        1.8148882744
 O       -10.9631551582        7.9649176340        2.8982314349
 C       -10.7985960586        7.0636978258        0.6314904859
 C       -10.5283162329        5.5492411238        0.9757116887
 O       -11.2391380278        5.0272841248        1.7604190842
 C        -9.3749996789        4.6774245890        0.3702042708
 C        -9.2141940597        3.2954034918        0.8977799771
 C        -7.8604972621        2.5565884304        0.3946146135
 O        -6.9663933612        3.1941822629       -0.0607948777
 C        -7.8240817099        1.0324023533        0.6791688451
 C        -8.0929125754        0.2554510386       -0.5617069662
 O        -8.0362347083        0.8354099527       -1.5989339886
 C        -8.6240123288       -1.1562949497       -0.6217679946
 C        -8.4510131016       -1.8050815968       -1.9642200847
 C        -9.8090972320       -2.1098492614       -2.6018886108
 O       -10.6080128994       -2.5386271759       -1.8256914192
 C       -10.2119172727       -1.9274206171       -4.1817061733
 C        -9.0653452143       -2.4822342122       -4.9969261594
 O        -7.9386978097       -2.3764261396       -4.6401432076
 C        -9.2447656936       -3.3249529842       -6.3379159403
 C        -8.1562312532       -2.7905768653       -7.3241893775
 C        -8.3428515395       -1.6414069074       -8.1920654960
 O        -9.4143921123       -1.1311540407       -8.5908789583
 C        -7.0250923217       -0.9503133956       -8.6280981351
 C        -5.9339420920       -2.0097398326       -9.1386441828
 O        -5.8027689008       -2.1572603913      -10.3533886208
 C        -5.2138745241       -2.9236641898       -8.1825679612
 C        -7.2385299295        0.1114161705       -9.7254125619
 C        -6.6090473659       -0.4027841634       -7.1163642448
 C       -11.6048868550       -2.5567022453       -4.3902083519
 C       -10.2579324887       -0.3788285781       -4.4996062065
 C        -6.3159418408        0.6934900850        0.8723017330
 C        -8.5855460560        0.4538544196        1.8778003863
 C       -11.8770418374        7.0177245126       -0.5470391544
 C        -9.5081611985        7.8658248992        0.2682869493
 C       -13.7747669417       10.4761545829        6.2454261756
 C       -11.6940948660       11.5180853078        4.9634928439
 C        -9.5978670294        4.7634406705        8.4641704810
 C        -9.0410850944        3.6523837307        6.0664044877
 H       -13.0846058196        3.0736413077        7.0777710236
 H       -12.3843614467        4.0077353330        8.4307980358
 H       -11.6429964766        2.5049498761        8.0016829890
 H        -9.8377583747        7.5407270786        8.0063046632
 H       -11.5070838994        6.9789587589        7.4162622805
 H        -9.8964267664        9.2392057180        5.8021192538
 H       -10.7840380967        9.6906225774        7.2369848028
 H       -11.2700954434       10.4207675444        2.4540441345
 H       -12.5679980404       11.1858332713        1.7544268817
 H       -12.4435304302        9.4046035390        0.5339866635
 H       -13.6142645185        8.8301775341        1.5286836998
 H        -8.4779382831        5.2000692635        0.1822602586
 H        -9.6820644824        4.5740075724       -0.8585066484
 H       -10.1491044697        2.6971534615        0.7168021779
 H        -9.3511678890        3.3965937504        2.0273927098
 H        -9.6502042855       -1.3466906401       -0.1259800828
 H        -8.1242575674       -1.7464366824        0.1248246448
 H        -7.7520222450       -2.7055934335       -2.0296763313
 H        -7.9927831785       -1.0246444926       -2.6663392117
 H       -10.1403890693       -3.4534724801       -6.8070220842
 H        -8.9220628783       -4.2448369782       -5.7981097541
 H        -7.9102291251       -3.6406560716       -7.9908507185
 H        -7.3408726693       -2.6252464707       -6.6005755262
 H        -4.5058529827       -2.3553008870       -7.5893073843
 H        -4.7377501260       -3.6149250477       -8.8659724882
 H        -5.9063438976       -3.4133936687       -7.4381998312
 H        -6.2203835640        0.4050322932       -9.9765291231
 H        -7.5520486734        1.0599875246       -9.2940590151
 H        -7.7285358873       -0.1814009983      -10.6530290186
 H        -6.3497666410       -1.0901963892       -6.4015725417
 H        -7.5199717895        0.0630251067       -6.7077998883
 H        -5.8544656246        0.2978390315       -7.3334612828
 H       -11.9058852775       -3.0833350429       -3.5358997344
 H       -11.6085089512       -3.1295566903       -5.3354236816
 H       -12.3551844366       -1.8009120621       -4.3818786348
 H       -10.7012267892       -0.1720757416       -5.5900190989
 H        -9.3277658496        0.1511458320       -4.5264576137
 H       -10.9640132728        0.0636296631       -3.7972283986
 H        -5.6958902768        1.1911574558        1.5813443286
 H        -5.7799253006        0.8419408562       -0.0660588153
 H        -6.0811380185       -0.3575718778        1.1480425210
 H        -8.0879488436        0.7766142358        2.8347795091
 H        -8.3019723585       -0.5705128668        1.8929442350
 H        -9.6935442786        0.4866692607        1.5370215411
 H       -11.4959789462        6.3869918457       -1.4193888238
 H       -11.9423427377        8.0475244040       -0.9201411473
 H       -12.7881333252        6.4722369764       -0.2809761642
 H        -8.8792208223        7.3063864633       -0.4480178197
 H        -9.0103617626        8.2269585698        1.1878965230
 H        -9.7601805535        8.6695849426       -0.4134586530
 H       -13.6060288904       10.0093668751        7.2615891850
 H       -14.6573728938       10.0056777826        5.9206813309
 H       -13.9715601667       11.5179222431        6.5166764727
 H       -11.5268015379       12.0371362697        5.8788383883
 H       -11.9907613698       12.3898744892        4.3437995341
 H       -10.8293290730       11.2678024556        4.4212576348
 H        -8.6041938458        5.2549992239        8.6740397312
 H        -9.6451175752        3.6628307298        8.8562371027
 H       -10.4066268166        5.0857755925        9.0719480068
 H        -9.3723936777        2.6822270928        6.3440403294
 H        -8.0590078633        3.6248124193        6.3127189225
 H        -9.0085043608        4.0013818924        4.9863754742
 Na      -11.4568165551        6.0799506956        3.8514482971
