117

 C       -12.2267332264        3.4550745177        7.6012460890
 C       -11.4638104194        4.1389126859        6.4701466399
 O       -11.8123255057        4.3408641200        5.3511666224
 C       -10.0087111219        4.7054359788        6.8543281632
 C        -9.9501392188        6.2265675591        6.3017632138
 O        -9.6145944819        6.3478164700        5.1203227050
 C       -10.5806837365        7.4631332937        7.1667873049
 C       -10.6901071626        8.7388966175        6.3349196631
 C       -11.9027180999        8.8786760087        5.3912892494
 O       -12.4949377895        7.8829463022        4.9529155368
 C       -12.5723414823       10.4765386829        5.1155188810
 C       -13.2076254818       10.3809236362        3.6888585363
 O       -14.4166185489       10.2400882021        3.5315099179
 C       -12.3105071278       10.3288493526        2.4593075112
 C       -12.4996436005        9.0468931279        1.5306539895
 C       -11.3677500215        8.1258569823        1.6461941866
 O       -10.9240778949        7.9319222995        2.7859634459
 C       -10.8300068246        7.2219521816        0.4856414230
 C       -10.4271687897        5.5714876855        1.0699865165
 O       -11.2103902515        5.0121315999        1.8244910943
 C        -9.3781368327        4.8156041392        0.3816001492
 C        -9.2668004979        3.3604637409        0.9535182249
 C        -7.9735768792        2.5831379625        0.5508594174
 O        -7.1315059036        3.2302406168       -0.0162452921
 C        -7.7458414916        1.0068926959        0.7283793560
 C        -8.1849974216        0.2797921557       -0.5887776942
 O        -8.0266407123        0.7461473452       -1.7106383104
 C        -8.5316775406       -1.2423555304       -0.5059485460
 C        -8.4091916002       -1.7530220001       -1.9478082444
 C        -9.9007214522       -1.9826447861       -2.5852992270
 O       -10.5854576650       -2.6826650708       -1.8926299434
 C       -10.2880486582       -1.7429294052       -4.0704528360
 C        -9.1641652199       -2.5731488987       -5.0110585141
 O        -8.0083457842       -2.3487734897       -4.7198498412
 C        -9.5414838975       -3.4205600500       -6.2872342560
 C        -8.2856899750       -3.1392560217       -7.2256463279
 C        -8.4489208267       -1.7965311518       -8.1425652181
 O        -9.4429772011       -1.2103024461       -8.1825680484
 C        -6.9348721640       -1.0579071934       -8.5315739192
 C        -5.9717543592       -2.1050030991       -9.1217685885
 O        -5.8069715232       -2.0072917517      -10.3460473670
 C        -5.1324753112       -3.0229347011       -8.2017484453
 C        -7.0917997550       -0.0222580738       -9.6128975692
 C        -6.5751700020       -0.4223745768       -7.1537277850
 C       -11.6173772716       -2.3445924421       -4.3016690058
 C       -10.1373561392       -0.2503715774       -4.5273757323
 C        -6.2178503631        0.7432040375        0.8810783837
 C        -8.4341500964        0.5238112901        2.0499625799
 C       -11.7663046082        7.0636716907       -0.7014305997
 C        -9.5255366330        7.9390017273        0.1068463377
 C       -13.6445809732       10.6709333304        6.1498998719
 C       -11.5434051660       11.6173776952        5.0660493928
 C        -9.6930398796        4.6386281484        8.2939341027
 C        -9.1109216713        3.8856456938        5.9717495017
 H       -13.2427356139        3.2337080264        7.2760397367
 H       -12.2335538081        3.9167875527        8.5017371685
 H       -11.6992317568        2.5540778948        7.8032609101
 H        -9.9090899341        7.5774731596        8.0214620453
 H       -11.5776306877        7.0522977123        7.3332335705
 H        -9.8006828230        9.0261980787        5.7972509520
 H       -10.8130041677        9.5682915849        7.0497574547
 H       -11.1446714292       10.2202691782        2.6114849059
 H       -12.2723694469       11.2056113770        1.7431317101
 H       -12.8045972508        9.3557516838        0.5209260523
 H       -13.4690104205        8.5851517545        1.8717026245
 H        -8.4897837498        5.3806951054        0.4712917347
 H        -9.5139682089        4.9498443833       -0.6555821650
 H       -10.1628292232        2.8052958588        0.8928180141
 H        -9.2602100302        3.5319735541        2.1533284809
 H        -9.4959485979       -1.5691032570       -0.0843260593
 H        -7.9681949108       -1.7656481703        0.2242665673
 H        -7.7123493057       -2.6690970731       -2.0274997430
 H        -7.8996772675       -0.9861501938       -2.5990691574
 H       -10.4362939404       -3.0379792803       -6.7463616109
 H        -9.6530699184       -4.4175685494       -5.8909287387
 H        -8.2301230296       -4.0295796546       -7.7870669250
 H        -7.4417281473       -3.1099648953       -6.5543992316
 H        -4.3560525419       -2.3947325486       -7.7101514412
 H        -4.7215644344       -3.8385192991       -8.8373702294
 H        -5.7296990268       -3.3740926472       -7.4624032983
 H        -6.1626608103        0.5976283602       -9.5740388624
 H        -7.8273275624        0.8101716725       -9.4715689350
 H        -7.1013424117       -0.4982650454      -10.5582909499
 H        -6.3342703299       -0.9782920162       -6.2439798268
 H        -7.5336796337        0.0669081050       -6.9787500281
 H        -5.9117979695        0.3448666958       -7.4725763494
 H       -12.3172367266       -2.3881573837       -3.3756669485
 H       -11.4168705390       -3.2649138749       -4.7396165591
 H       -12.2246532937       -1.7631211109       -4.9074643821
 H       -10.7784428935        0.0059977807       -5.4490178064
 H        -9.1082979075       -0.0025320402       -4.8720143269
 H       -10.4587882122        0.4280414800       -3.7895055779
 H        -5.6630630197        1.2104719990        1.7484126336
 H        -5.5592352120        1.0251003490        0.0372312645
 H        -5.9017299409       -0.3518573862        1.1029265656
 H        -8.0436381071        1.1750255526        2.8418474216
 H        -8.1948878875       -0.5951654317        2.3345938221
 H        -9.4587216550        0.5457415262        1.6918209496
 H       -11.1899847850        6.4569848644       -1.4399793204
 H       -12.0226372582        8.0377477973       -1.1784374184
 H       -12.5215011721        6.3499927772       -0.5517069099
 H        -9.0591339261        7.6366449323       -0.8851068037
 H        -8.8936675763        8.0685644973        0.9773629234
 H        -9.8683171201        8.8986572616       -0.2626144007
 H       -13.4135213438       10.5424068575        7.1346520627
 H       -14.3274107816        9.9341689833        5.9521697697
 H       -14.1284400475       11.6406082070        6.0796483953
 H       -11.6599480878       12.0961056900        6.0296293002
 H       -11.5646165011       12.3964679818        4.4096460428
 H       -10.5033180996       11.2798940590        4.8430152456
 H        -8.5833802274        4.5625611054        8.5272189990
 H       -10.2233749293        3.7337229798        8.6440846043
 H       -10.2224193013        5.3263025272        8.9091010882
 H        -9.4266726225        2.8075446737        5.9438552880
 H        -8.0524000661        3.7701185869        6.3770829639
 H        -8.9374925980        4.5013902300        5.0582619886
 Na      -11.5474351803        5.8782229455        3.8058322635
