117

 C       -12.4474038333        3.3965516278        7.5387536734
 C       -11.6537989481        4.1598804520        6.4357993128
 O       -12.2174745693        4.4215919094        5.3686649064
 C       -10.0858722926        4.7778079759        6.6045425626
 C       -10.1012475314        6.2199436572        6.1454400095
 O        -9.9000959828        6.4166790814        4.9772492690
 C       -10.6013451077        7.4134879276        7.0210943427
 C       -10.6158353378        8.6753866806        6.1933994763
 C       -12.0185220291        8.9024304321        5.4479103434
 O       -12.6400198728        7.9841190933        4.9940532333
 C       -12.3888509817       10.3854157249        5.1799862680
 C       -12.9071481819       10.2449444543        3.6637776447
 O       -14.1004875897       10.0558099141        3.5791014823
 C       -12.1125619213       10.2272329267        2.3936208828
 C       -12.2789277354        9.0054110087        1.3579992758
 C       -11.2035112468        8.0193069380        1.5416154787
 O       -10.6946567405        7.9026538708        2.6338447718
 C       -10.7486149826        7.1501662691        0.2610781346
 C       -10.4370960669        5.7688488689        0.9270825808
 O       -11.2459284207        5.3834304492        1.7648081502
 C        -9.2124494373        4.8612975743        0.4686129019
 C        -9.2991813701        3.3907319955        1.0210969142
 C        -7.9689104946        2.7173833180        0.5525048950
 O        -7.1595298620        3.3731891005       -0.0246255927
 C        -7.7202109535        1.2078155761        0.8276541419
 C        -8.1409143280        0.4134995875       -0.5777759856
 O        -8.1894918307        1.1574117749       -1.5050317399
 C        -8.2972333005       -1.1661856790       -0.5970046434
 C        -8.4505075781       -1.9304331831       -2.0547298990
 C        -9.8798652709       -2.1580637073       -2.4788980003
 O       -10.7853311194       -2.7740265276       -1.9129626889
 C       -10.2169206141       -1.7483288023       -4.0296227306
 C        -9.2428876735       -2.4614923647       -4.9680249013
 O        -8.0358187488       -2.4383953670       -4.8026873098
 C        -9.8643714451       -3.3003099665       -6.2220560366
 C        -8.8160706601       -3.4351690228       -7.4205144180
 C        -8.3730253165       -2.0501593644       -7.8359770256
 O        -9.3159683301       -1.1742350162       -7.7329857305
 C        -7.0003812619       -1.4191831560       -8.3390979527
 C        -5.8621497919       -2.2216605244       -9.0306551481
 O        -5.7513873701       -2.1603930163      -10.2287767807
 C        -4.9240912977       -3.1437517847       -8.1645360231
 C        -7.6338979040       -0.2531970339       -9.2945910090
 C        -6.2364446301       -0.6524739571       -6.9910243296
 C       -11.7695816187       -1.8612524491       -4.3370412014
 C        -9.8811200399       -0.2448270214       -4.1827378371
 C        -6.2199461844        1.0495980530        0.9278844409
 C        -8.4095644264        0.6958766141        2.0736248688
 C       -11.7282799440        6.9768163933       -0.9693543607
 C        -9.4106352262        7.8754805418       -0.1314533696
 C       -13.5453708988       10.7879523867        6.0832042791
 C       -11.0494859095       11.2144046422        5.2603913916
 C        -9.7677136538        4.6617396544        8.1032799753
 C        -8.9828163416        3.9816560945        5.7908862183
 H       -13.5162747415        3.4537400241        7.3389391943
 H       -12.3556329366        4.0714264696        8.4600235445
 H       -12.0229829133        2.3941018942        7.9521667556
 H       -10.0005939416        7.3732329465        7.9099880043
 H       -11.6440696671        7.1333614857        7.0830325417
 H        -9.9694711971        8.6961751547        5.2880334630
 H       -10.2546161758        9.5439593659        6.7445391913
 H       -11.0978589061       10.4182141654        2.3749355268
 H       -12.5621847430       11.0393558139        1.8684684359
 H       -12.3315378101        9.5019936440        0.3760367580
 H       -13.3122930152        8.6757195818        1.4757706499
 H        -8.2370586326        5.2618204866        0.7678072666
 H        -8.9210627549        4.7244012313       -0.7400188340
 H       -10.2450290091        2.8774937168        0.6880857845
 H        -9.2926268504        3.3639261047        2.0403664925
 H        -9.0485790659       -1.4247495068        0.1478376969
 H        -7.4821683533       -1.7047886897       -0.0743134172
 H        -7.8997331011       -2.8110970281       -1.8942144452
 H        -7.9087242579       -1.4352352029       -2.8509558893
 H       -10.7918441621       -2.7652615988       -6.4977912005
 H       -10.1047269586       -4.3520868266       -5.8912770681
 H        -9.3516550319       -4.1089490203       -8.1427712442
 H        -8.0357411128       -4.0949767793       -6.9871106699
 H        -4.0627463778       -2.5744379889       -7.9284534872
 H        -4.7242830126       -4.0595160361       -8.6731226280
 H        -5.4712935148       -3.3653288600       -7.1710986769
 H        -7.1626382895        0.7114537611       -9.3358991446
 H        -8.4616706068        0.1305567993       -8.7124084835
 H        -7.9507752031       -0.6420856450      -10.2975719989
 H        -6.1977999865       -1.5267519537       -6.3571162845
 H        -6.8072443038        0.1832141087       -6.4922789120
 H        -5.2252131837       -0.3299658931       -7.3345111802
 H       -12.1451948621       -0.9377532322       -4.5876737110
 H       -12.3130321978       -2.3517817273       -3.4526797611
 H       -12.1601937922       -2.3855311560       -5.2687889560
 H       -10.3783123012        0.1993363639       -5.1242060224
 H        -8.8568832380       -0.0870629495       -4.2364846908
 H       -10.3259412330        0.3185862875       -3.3610155049
 H        -5.8202895122        1.3670240036        1.8557646188
 H        -5.6798787355        1.6954490081        0.2630964641
 H        -5.8141143394        0.0985402280        0.7922939445
 H        -7.9780107049        1.4140252785        2.8071866962
 H        -8.0906054708       -0.2695999972        2.1499719285
 H        -9.5026571828        0.6102749811        2.0315205713
 H       -11.4950937122        6.2802026278       -1.7264623454
 H       -11.9005733452        7.9540454735       -1.2803826309
 H       -12.6199754182        6.4715246150       -0.5929129792
 H        -9.1720703834        7.5344485578       -1.0924924596
 H        -8.6420853481        7.5913188790        0.5777649396
 H        -9.5017433556        8.9613388607       -0.2494640737
 H       -13.1062389194       11.0963329008        7.1480043408
 H       -14.1994028871        9.9414481054        6.3655443099
 H       -14.1884765388       11.5771792814        5.5931905691
 H       -10.7675146682       11.4267928232        6.3111531101
 H       -11.1823970922       12.2729316933        4.7809489950
 H       -10.2364761833       10.8350714769        4.6681138477
 H        -8.7779010613        4.9925313213        8.0887282492
 H        -9.8373009639        3.6677154369        8.5313409916
 H       -10.3277293396        5.2970255880        8.7550514028
 H        -9.0890697908        2.9641879615        6.1161371246
 H        -8.0541540679        4.2297880007        6.1645452242
 H        -8.8976976621        4.2099551859        4.7071012153
 Na      -11.7537184931        5.9104320284        3.8406307226
