117

 C       -12.3352306137        3.4345606747        7.5191168782
 C       -11.6998312230        4.1778973931        6.4211242686
 O       -12.3291412167        4.3459650654        5.4035160758
 C       -10.1841992235        4.6611796901        6.6155245785
 C       -10.2658410623        6.1064628894        6.0007643474
 O        -9.8350725994        6.3920155865        4.8776220794
 C       -10.6266424949        7.2917150111        7.0465776670
 C       -10.6326916705        8.5971050577        6.2643751469
 C       -11.8274186417        8.8507333081        5.4558655386
 O       -12.5992267368        7.9619543130        5.1212548930
 C       -12.2576060768       10.3607354734        5.1347906249
 C       -12.9294647306       10.1643237035        3.5916626532
 O       -14.1340006947        9.9512173812        3.4969467769
 C       -11.9579296660       10.3974501113        2.2802937664
 C       -12.2023922868        9.1372709193        1.2646474630
 C       -11.0934712318        8.0851567733        1.4108557266
 O       -10.5976498100        7.8190685823        2.5086199898
 C       -10.6069071570        7.1690058849        0.2725915698
 C       -10.4996414333        5.7002637837        0.8718976454
 O       -11.2565683205        5.2404572620        1.6817687520
 C        -9.3321958396        4.9348951382        0.4930937754
 C        -9.2840270411        3.5166441153        0.9073470696
 C        -7.9158131885        2.7560553637        0.5140534608
 O        -7.1204204762        3.4525768737       -0.0346861591
 C        -7.6183037194        1.1944806002        0.7695686012
 C        -8.1622461564        0.5108339013       -0.5899984528
 O        -8.3974502715        1.1368521076       -1.6137865812
 C        -8.3440292805       -0.9703443024       -0.5371844311
 C        -8.4762336061       -1.7676835066       -1.8953568321
 C        -9.9598036364       -2.0955331193       -2.5251587149
 O       -10.6712686616       -2.7231527565       -1.7988892605
 C       -10.2053435456       -1.6014681476       -3.9963274719
 C        -9.3252233944       -2.5675071989       -5.0547711842
 O        -8.1616482806       -2.5422247617       -4.9535935353
 C        -9.8864432412       -3.4990815816       -6.2083756439
 C        -8.7502286948       -3.4471997430       -7.3010015479
 C        -8.4687755383       -1.9279448794       -7.6426425852
 O        -9.3697540142       -1.0942755952       -7.4783607618
 C        -7.0754666805       -1.5170761725       -8.2047953619
 C        -6.0384777690       -2.3192147410       -8.9632122741
 O        -5.8133283645       -2.2136685467      -10.1779393201
 C        -5.0637075968       -3.1091855849       -8.0922936903
 C        -7.3745883682       -0.4128975250       -9.2771613691
 C        -6.2862109289       -0.9278730866       -7.0002140503
 C       -11.6606154648       -1.7521386876       -4.2801918950
 C        -9.7221184935       -0.1193574535       -3.9578334332
 C        -6.1081482454        1.0713313118        0.9769753771
 C        -8.5124387540        0.6401172439        2.0042573819
 C       -11.6923154261        7.0293484250       -0.7803374922
 C        -9.3097514251        7.8022665968       -0.2892254816
 C       -13.4230944889       10.8293941774        6.0955157375
 C       -11.0284868979       11.1768251715        5.0925400153
 C        -9.7992978354        4.7314771599        8.1124230956
 C        -9.2319312838        3.8910631250        5.7643351908
 H       -13.4463246708        3.3074846891        7.3359348141
 H       -12.3471782500        3.9549279185        8.4848979320
 H       -11.7112242817        2.4889274874        7.7850816015
 H        -9.7824036681        7.1917912192        7.7488596626
 H       -11.6308115423        7.0667801812        7.3760013581
 H        -9.7586917608        8.8542582147        5.6069658539
 H       -10.6035596182        9.4856365358        6.9137998181
 H       -10.8742920029       10.1669032038        2.4979606022
 H       -12.0683906303       11.3397438802        1.8253247820
 H       -12.2063876987        9.5527861873        0.3038495811
 H       -13.2362896107        8.8338634217        1.4518482610
 H        -8.3857312854        5.4294996195        0.8457446407
 H        -9.1014786327        4.9968037907       -0.6529691918
 H       -10.1582329535        3.0021625430        0.5290046973
 H        -9.2978584227        3.4369157153        2.0939222131
 H        -9.0214581087       -1.2173834878        0.3843709832
 H        -7.4388624082       -1.4276681532       -0.1097209912
 H        -7.8956970433       -2.6733125136       -1.7008168959
 H        -7.7576592090       -1.2319868569       -2.5441107993
 H       -10.7712664125       -3.0559258923       -6.5505181503
 H       -10.0814498917       -4.5692558111       -5.8557385841
 H        -9.2832387044       -3.8921357037       -8.1775220744
 H        -7.9691703562       -4.2290275389       -7.0091763044
 H        -4.2037385431       -2.4014344144       -8.0462402477
 H        -4.7870880067       -4.0424186929       -8.6504188873
 H        -5.3945727316       -3.3731524883       -7.1247806369
 H        -6.5760825035       -0.0076347366       -9.8441119617
 H        -7.8388533737        0.5476469995       -8.9181647055
 H        -8.0710708104       -0.9808826899       -9.9043876748
 H        -6.3185450088       -1.7639180986       -6.3494566605
 H        -6.8289444527       -0.0349616322       -6.5719987692
 H        -5.2849241228       -0.6743347531       -7.3193039178
 H       -11.9756518473       -1.1329412889       -5.1689922148
 H       -12.3310706588       -1.6873809724       -3.4025347839
 H       -11.8968452040       -2.6881410476       -4.7272904317
 H        -9.7038467808        0.4220479752       -4.9928881140
 H        -8.7317514324       -0.0921129277       -3.4908231293
 H       -10.4040271978        0.4548812817       -3.3762065969
 H        -5.8650215390        1.5575877162        1.8568653468
 H        -5.5216060397        1.6111581600        0.3385345752
 H        -5.6624831383        0.0788246116        1.0134862472
 H        -8.0960458945        1.3125203656        2.7478474010
 H        -8.3679309807       -0.4426150087        1.9644981026
 H        -9.6325408260        0.7212634950        1.9428565209
 H       -11.4630565298        6.1966545651       -1.4929558811
 H       -11.8381370207        7.9880286877       -1.2745950380
 H       -12.5657322263        6.6064011719       -0.3791036184
 H        -8.9765111738        7.1378445684       -1.1506300433
 H        -8.5584552793        7.7779367822        0.4717472034
 H        -9.4687795807        8.7934711473       -0.6479324367
 H       -13.1364628316       10.9268250767        7.1807067713
 H       -14.1637354372       10.0388643508        6.1288957262
 H       -14.0059116982       11.7687344205        5.6712591761
 H       -10.4328862157       11.0679249232        6.0399702434
 H       -11.2166979928       12.2449794244        4.9618467345
 H       -10.2865713180       10.9319933023        4.2603899634
 H        -9.0068276592        5.5233358119        8.2008148517
 H        -9.4106046777        3.7428498358        8.5313701220
 H       -10.5845122902        5.0375415180        8.7198672666
 H        -9.0081401365        2.9590861777        6.1418560361
 H        -8.3651316978        4.4570239603        5.6341816137
 H        -9.6915030785        3.9197426224        4.7797751813
 Na      -11.8845936286        6.1786270320        3.8286451047
