117

 C       -12.3017704338        3.2883230577        7.6191611779
 C       -11.8142734028        4.1347959413        6.4059858786
 O       -12.3438052633        4.3705378527        5.3581713224
 C       -10.3045040012        4.7419692083        6.5795892479
 C       -10.1856186163        6.1162789996        6.0143672415
 O        -9.8212482992        6.2865792343        4.8795684311
 C       -10.6293644910        7.2355078661        6.9880470413
 C       -10.6402466346        8.6332781385        6.4639504630
 C       -11.8478272939        8.8208487624        5.4775327404
 O       -12.5765375743        7.8702748046        5.2354692309
 C       -12.1351631420       10.2757011349        4.8340222564
 C       -12.8693909528       10.1558806107        3.5104662650
 O       -14.0093781812        9.8727599997        3.3359814705
 C       -11.9843986538       10.3701016843        2.3732359407
 C       -12.0031266818        9.2978982393        1.2522034687
 C       -11.0588015740        8.1531798096        1.4406478437
 O       -10.5584067720        7.9608539991        2.5592306198
 C       -10.6268044918        7.1350456978        0.2877577360
 C       -10.4138167043        5.6463260194        0.9000346979
 O       -11.3299861894        5.2187006450        1.6047763174
 C        -9.2706567171        4.8758754847        0.4088075957
 C        -9.2022905971        3.4576924365        0.8403760101
 C        -7.8935021025        2.8447135124        0.4913559091
 O        -6.9855562231        3.5023366302       -0.0409586130
 C        -7.6579601196        1.3841551931        0.7018093989
 C        -8.2027929498        0.5701772619       -0.6110008474
 O        -8.5672156738        1.1615886801       -1.6051645289
 C        -8.3662244099       -0.9920739092       -0.5318622711
 C        -8.3662164770       -1.7511730370       -1.7762544892
 C        -9.7960733147       -2.0252105477       -2.4295562816
 O       -10.6272786029       -2.6027415932       -1.7955867905
 C       -10.1004702940       -1.6366348057       -3.9295273344
 C        -9.3432688953       -2.5061452603       -4.9803920471
 O        -8.0907899092       -2.5597798076       -4.8698842381
 C        -9.8863778392       -3.4400451894       -6.1067953588
 C        -8.8006557928       -3.3692018514       -7.2150604187
 C        -8.6224979971       -1.9189040874       -7.6032133512
 O        -9.3562032766       -1.1372293867       -7.1821960212
 C        -7.1740440473       -1.4843278725       -8.1544612757
 C        -6.1739791747       -2.5617202582       -8.9045957145
 O        -5.9586618868       -2.4674707779      -10.0861510759
 C        -5.0735364512       -3.3769322212       -8.0377309703
 C        -7.1919455324       -0.1976404171       -9.2634147741
 C        -6.4446716053       -0.9390800013       -6.9110206404
 C       -11.6564528098       -1.6470641512       -4.2028852184
 C        -9.6855395479       -0.1207446689       -4.0994699511
 C        -6.2538175107        1.0491720635        0.9634325131
 C        -8.4900728190        0.7269969977        1.8392057411
 C       -11.7765503147        7.1139206570       -0.8134173774
 C        -9.3097640810        7.6254588238       -0.4326214951
 C       -13.1213167026       10.7825203594        5.9250611459
 C       -11.0568522151       11.3600949946        4.9490232685
 C        -9.7762217846        4.7135867174        8.0579508210
 C        -9.5046453897        3.6758835769        5.6937211778
 H       -13.2864975232        2.8136044039        7.4331453498
 H       -12.5184436229        3.7379792088        8.5853492631
 H       -11.5432155849        2.6487772250        7.8147952135
 H        -9.7416660009        7.1389452617        7.6498751135
 H       -11.5601003562        6.7960677344        7.3918256300
 H        -9.7078294408        8.9676197170        5.9912638357
 H       -10.6641264132        9.3520022955        7.3124473438
 H       -10.8661751966       10.3600389338        2.6379613232
 H       -12.2961166804       11.3922756362        1.9408230023
 H       -11.8147729451        9.8960260169        0.3627614212
 H       -13.0589296681        8.9496473287        1.2493215839
 H        -8.2310999088        5.2534574336        0.6087176188
 H        -9.3025339395        4.9270671416       -0.5516144784
 H        -9.8635538885        2.8028303513        0.2571278414
 H        -9.4463471836        3.3067466048        1.9878491252
 H        -9.4178206926       -1.0374195595       -0.0959221531
 H        -7.8871370300       -1.5825298136        0.2890326189
 H        -7.8556994537       -2.7529275098       -1.5738607481
 H        -7.5825773327       -1.2548940337       -2.4220608949
 H       -10.9164655874       -3.2020230211       -6.3944219937
 H        -9.8579989259       -4.3836589438       -5.6204552912
 H        -9.0135022584       -4.0230702640       -8.0700421722
 H        -7.9240650805       -3.8202816961       -6.7266083786
 H        -4.2963637430       -2.5780782185       -7.9118970853
 H        -4.7012999580       -4.2240626401       -8.6465011389
 H        -5.3920875065       -3.7870974955       -7.1178839488
 H        -6.3854843715       -0.2952518938      -10.0171922103
 H        -7.0951043531        0.8588785357       -9.0324439158
 H        -8.0732822776       -0.4426664638       -9.8128735473
 H        -6.4610750674       -1.7642346186       -6.1859438088
 H        -7.0202706243       -0.1261555848       -6.6245980767
 H        -5.4633305449       -0.6278200862       -7.1721241418
 H       -11.8318766129       -1.7732486331       -5.3203339826
 H       -12.1780937452       -0.8158155594       -3.8047298513
 H       -12.1844848429       -2.4905339714       -3.8675799207
 H        -9.6972254810        0.1214875905       -5.0667970552
 H        -8.6601066001        0.1027935851       -3.5946181809
 H       -10.4739818574        0.5336842022       -3.6496206163
 H        -5.8458932604        1.5813797786        1.8506035119
 H        -5.4509251325        1.2834335871        0.2690022113
 H        -6.1904696568       -0.0226590795        1.1227482738
 H        -8.2745996483        1.3328115812        2.7114378893
 H        -8.2337075696       -0.3671503458        1.6050477774
 H        -9.5765619646        0.7161770870        1.6971205574
 H       -11.4228611519        6.2771171050       -1.4288703001
 H       -11.8153602359        8.0589158395       -1.4250362492
 H       -12.7747183572        6.7295505338       -0.5552512357
 H        -8.8130290356        6.8132638856       -1.0412478391
 H        -8.5992582839        7.9403059444        0.3423216968
 H        -9.5467839588        8.5080990052       -1.0450553214
 H       -12.6669708824       10.5952991521        6.8208060610
 H       -14.1551041423       10.3389539203        6.0173290750
 H       -13.2719389566       11.7813489805        5.7488634181
 H       -10.6281271917       11.3881535998        5.9779008858
 H       -11.5608021127       12.2777274286        4.7445591845
 H       -10.0991258216       11.3165191891        4.3300223499
 H        -8.9263004601        5.4098372303        8.3221815099
 H        -9.5164120815        3.6662276447        8.2123297835
 H       -10.6294087360        4.9408074373        8.8216009038
 H        -9.1909387810        2.8276128387        6.3095999295
 H        -8.6431776139        4.2188348599        5.1635608026
 H       -10.1514285436        3.3187827232        4.9582093346
 Na      -12.0216021741        6.3966416035        3.7434753297
