117

 C       -13.1155051929        7.0444193511       -5.5257306713
 C       -12.2108997457        6.9329228682       -6.7688785536
 O       -12.1662476313        7.8451351552       -7.5798800327
 C       -11.3100740516        5.5947451878       -6.9390811282
 C       -10.5742199957        5.3380492505       -5.6384699755
 O       -11.2102050966        4.9000364363       -4.6684351004
 C        -9.1284372948        5.8585397186       -5.6398372431
 C        -7.9696092088        4.9744339910       -5.0110940243
 C        -7.8946797306        5.0242554527       -3.4651385840
 O        -8.5300711430        5.9077096222       -2.9133856353
 C        -6.9321916040        4.0158937043       -2.8098488993
 C        -6.1561884732        4.7207860469       -1.6615591237
 O        -4.9645148208        4.7643894911       -1.6379710773
 C        -6.9561677694        5.6171139773       -0.6545131551
 C        -6.1692923694        5.8612588337        0.5877878603
 C        -6.5014950212        4.6210955310        1.6258690862
 O        -7.2742410356        3.7382998825        1.3133383654
 C        -5.8373949927        4.6248418608        3.0957555663
 C        -6.6608241778        5.7705071664        3.8935448927
 O        -6.8117728800        6.8117454548        3.3234537538
 C        -7.1741216090        5.6394604910        5.3246900330
 C        -8.6846742229        6.0678293661        5.3467869108
 C        -9.5190095565        4.9877631856        4.6449355150
 O        -9.2495491950        3.8466212202        4.9026290379
 C       -10.7010190771        5.5342456388        3.6411294525
 C       -11.4483560656        4.2784595548        3.1055615903
 O       -10.9686801088        3.3920413111        2.4121489178
 C       -12.9408114688        4.2830641613        3.3438746765
 C       -13.6446780492        2.9828928934        2.9042828454
 C       -13.9164621370        3.0473070615        1.2973402059
 O       -13.9989632725        4.0642172350        0.6843064541
 C       -14.4147331603        1.6422054947        0.5412039574
 C       -13.2001676756        0.6543194398        0.5445782265
 O       -12.8136863886        0.1619606413        1.6482400481
 C       -12.4046402143        0.4568596752       -0.8044080564
 C       -11.2127580059       -0.4371225483       -0.5929344640
 C       -10.1269767728        0.2619645974        0.1857663247
 O        -9.9813422181        1.4776652573        0.1335764296
 C        -9.0278083693       -0.6602348181        0.9359359012
 C        -9.3633512442       -0.6080052366        2.3508585637
 O        -9.0335162792        0.3752686334        3.0665992197
 C       -10.1794917736       -1.7848081615        3.0171960230
 C        -9.0341269608       -2.1150282848        0.4585183309
 C        -7.5331421161       -0.2262159689        0.6572775589
 C       -15.6666289097        1.1366126362        1.3762019933
 C       -14.9353668611        1.9850908922       -0.8765234230
 C       -11.5448822334        6.5806189399        4.2856423460
 C        -9.9614320992        6.0590611416        2.3833441351
 C        -6.1050547294        3.2627184278        3.7680139260
 C        -4.3709500744        4.9976792352        3.4237379647
 C        -7.8320028307        2.9576605010       -2.2141361413
 C        -5.9162341255        3.3275677087       -3.7664509159
 C       -12.4368986096        4.4302811337       -7.1607066647
 C       -10.5154308706        5.8961356744       -8.2685585177
 H       -13.0933200326        6.1602013092       -4.9599472421
 H       -14.1180091114        7.2546916225       -5.9939324293
 H       -12.8459221646        7.8842605339       -4.8183873473
 H        -9.0456418043        6.7999157636       -5.1861132389
 H        -8.9558713223        6.0583580971       -6.6770985999
 H        -6.9914687554        5.2964848607       -5.4755437377
 H        -8.0269537789        3.9116116599       -5.4020186156
 H        -8.0181925285        5.3467023289       -0.3980482260
 H        -7.1302642245        6.5760049802       -1.1193512035
 H        -6.6399656968        6.7369192792        1.0189578023
 H        -5.1131885959        5.8915285434        0.4191119739
 H        -6.6750033796        6.3687120213        5.9150719582
 H        -7.0387541721        4.6444584459        5.8000306962
 H        -8.9001245643        7.0093429316        4.8886861038
 H        -8.9152426335        6.2546015263        6.4242698698
 H       -13.3252518687        5.1776060266        2.9039947513
 H       -13.1388552368        4.3674188562        4.4207469536
 H       -14.5765230422        2.6577467288        3.3831088232
 H       -12.9350415636        2.1197918861        3.0645528413
 H       -12.1630070219        1.4557162108       -1.1633817170
 H       -13.0499126433       -0.0168475032       -1.5624940452
 H       -10.7765166310       -0.8755021085       -1.5507710415
 H       -11.5334406580       -1.3057219395       -0.0155175983
 H       -10.8272493045       -1.3400011539        3.7133721857
 H        -9.6830698409       -2.6284616842        3.4693941949
 H       -10.8856335043       -2.2685525909        2.2907431894
 H        -8.6570191026       -2.1786247213       -0.5914478969
 H       -10.0432768013       -2.5460779470        0.4104144284
 H        -8.4617782712       -2.6817668350        1.1753980228
 H        -7.2822330522        0.8256679179        0.6799137668
 H        -7.3555729587       -0.4335125505       -0.3823700510
 H        -6.8486465443       -0.8733358770        1.3196906392
 H       -15.3100021016        0.7645395888        2.3082639434
 H       -16.2678713229        0.3791928887        0.8912780654
 H       -16.2686518668        2.0056926787        1.6733031135
 H       -16.0023851373        2.2516428272       -0.8661198858
 H       -14.8193408587        1.0956278933       -1.5287282963
 H       -14.5316920347        2.9392429674       -1.3209529441
 H       -11.0853337815        7.5596019351        4.3289368524
 H       -11.7920189722        6.3718322517        5.3409765775
 H       -12.3855222168        6.6421770430        3.6864216715
 H        -8.8976266411        5.6946100924        2.3396343857
 H        -9.8907813219        7.1282690378        2.4165154857
 H       -10.5293086363        5.8759415458        1.4145407021
 H        -5.8545235764        3.1911472314        4.8386110327
 H        -5.6531276351        2.5120197193        3.1303995427
 H        -7.1227310193        2.9947582111        3.8149413183
 H        -3.6586839920        4.2550681851        2.9436824811
 H        -4.1384171703        4.8910446879        4.4540572216
 H        -4.0273895965        5.9276825309        3.2159763317
 H        -8.3886539409        2.3223767165       -2.9636753318
 H        -8.4814420125        3.3961178582       -1.4234094624
 H        -7.1341981037        2.2684257826       -1.7092443060
 H        -6.3515300262        2.8252899259       -4.6215281138
 H        -5.3849194473        2.5717229541       -3.2022522752
 H        -5.2839441207        4.1033940411       -4.2051955435
 H       -13.3123412678        4.7272095672       -6.5493793948
 H       -12.2267260751        3.3814840168       -6.9287047141
 H       -12.6219195560        4.4859169495       -8.2231141008
 H        -9.9847690812        6.8957701293       -8.2438508983
 H       -11.2453503067        5.9842635854       -9.1167042495
 H        -9.9418466621        5.0016597101       -8.4529325430
 Na       -8.9428654216        2.3303965636        2.0876753270
