117

 C       -12.7316147498        3.1664152651        7.0010409714
 C       -12.0386050590        4.2949481550        6.3079470258
 O       -12.7251300994        5.0472334539        5.6462479704
 C       -10.3744313768        4.5814657214        6.5100079315
 C       -10.2322673540        5.9939623075        6.0567477645
 O       -10.0830239337        6.1820817336        4.8719474808
 C       -10.4860587697        7.2003313135        6.9852454311
 C       -10.3993878028        8.4979775386        6.1523045721
 C       -11.6628535190        8.7580907554        5.2567399075
 O       -12.4686263497        7.8306826203        5.1492412857
 C       -11.9010146789       10.1316468711        4.7526079189
 C       -12.2339336937        9.9798747184        3.2800982410
 O       -13.1140414953        9.2078345796        3.0659516610
 C       -11.5775670321       10.6752164838        2.1408284645
 C       -11.5790976244        9.7301832894        0.8905648895
 C       -11.0774735467        8.3591187112        1.3674637027
 O       -10.8477673834        8.2061509677        2.5638644222
 C       -10.7591600146        7.2616058872        0.1696487622
 C       -10.4136297859        5.8200226417        0.6572972938
 O       -10.9050959618        5.4473152348        1.7180910733
 C        -9.4201399807        4.9418511851       -0.1305432554
 C        -9.3633374656        3.5617184602        0.4780554370
 C        -7.9329802320        2.8714070980        0.4894228080
 O        -6.9999764227        3.6129121264        0.2456917516
 C        -7.7732368527        1.3678695288        0.8267529166
 C        -8.4634256867        0.5279451175       -0.3527375607
 O        -9.0240517335        1.0962477624       -1.2449764991
 C        -8.2599547441       -0.9885190430       -0.4860514522
 C        -8.2791267036       -1.4934840072       -1.8693644517
 C        -9.6357617376       -1.6859245150       -2.4101360361
 O       -10.4876002506       -1.9950368680       -1.5597068308
 C        -9.9237281517       -1.5187537262       -3.9471754789
 C        -9.1750017038       -2.6450786013       -4.6548914833
 O        -7.9601952401       -2.8985851118       -4.3708927614
 C        -9.7976517744       -3.4816313833       -5.7634222278
 C        -8.9409377424       -3.1392002767       -7.0153828312
 C        -8.6777527713       -1.6380670016       -7.3984454808
 O        -9.4908276303       -0.8330842934       -7.5449320537
 C        -7.0018361172       -1.4697661709       -7.7966089908
 C        -6.6656571970       -2.9260031136       -8.3109761886
 O        -7.2442144571       -3.2866570729       -9.3147132448
 C        -5.6533619098       -3.9549899413       -7.7678265408
 C        -6.8101395505       -0.5015490616       -8.9887587038
 C        -5.9494696105       -1.0854564964       -6.7432498702
 C       -11.4423814690       -1.6197610447       -4.1847439616
 C        -9.5344553027       -0.0810510173       -4.2629640594
 C        -6.2215576732        1.1336695230        0.7665500943
 C        -8.3707376524        0.8454790616        2.1514440515
 C       -11.9616259948        7.0595227125       -0.7345294215
 C        -9.5398592948        7.8569932344       -0.7129623610
 C       -13.0635637775       11.0021101381        5.2290691094
 C       -10.7128292103       11.0898111531        5.0635772015
 C        -9.9439613103        4.2120046846        7.9603524796
 C        -9.7225627658        3.7095824956        5.3391247316
 H       -13.4312340703        2.7443562028        6.2811046959
 H       -13.5198829130        3.3407667739        7.8359578252
 H       -12.0024882083        2.4251739271        7.3764595101
 H        -9.5504257179        7.2141653513        7.5670591214
 H       -11.4085004011        7.0351712346        7.6152061001
 H        -9.5059275573        8.6230640363        5.5500206625
 H       -10.0991575699        9.2628946329        6.8917586098
 H       -10.5886054405       11.0110284751        2.4459045432
 H       -12.3828335858       11.4825658158        1.8875011556
 H       -11.0197534708       10.2418822305        0.1628527039
 H       -12.6263575209        9.7227553008        0.6985448529
 H        -8.4675467192        5.4524898676        0.1151231031
 H        -9.5223371781        4.8252997028       -1.1671180156
 H       -10.2205112138        3.0288541519       -0.1192432357
 H        -9.6699823293        3.6920867795        1.5551735139
 H        -9.2064036568       -1.5162439950       -0.0775081380
 H        -7.3498804061       -1.3591237814        0.0945132606
 H        -7.7348462054       -2.4568257659       -1.7932815568
 H        -7.5730332899       -0.8612902924       -2.4217131091
 H       -10.9115676064       -3.3480518610       -5.9243832729
 H        -9.6840768746       -4.5205737802       -5.5382556745
 H        -9.4818612680       -3.5576791169       -7.9265896406
 H        -8.0013230983       -3.7002685498       -6.9586164486
 H        -4.6179813373       -3.5986201467       -7.6217757156
 H        -5.6602182048       -4.7206250679       -8.5267650236
 H        -6.0337708257       -4.4964134467       -6.8667978858
 H        -5.7614576851       -0.1107870266       -8.9457340404
 H        -7.4122416207        0.3708375909       -8.9181505622
 H        -7.0357254759       -0.8324804859       -9.9998279065
 H        -6.0593356212       -1.6306501490       -5.7194026108
 H        -6.0235039996       -0.0242118103       -6.6039596375
 H        -4.9864763402       -1.3376517657       -7.2339301911
 H       -11.9966406273       -2.3169734647       -3.5531333928
 H       -11.6790075209       -1.9586252708       -5.1851933966
 H       -11.9885461498       -0.6925855085       -3.9242541369
 H       -10.1340130132        0.2272892238       -5.1280446795
 H        -8.4885171291        0.1004339087       -4.3824913408
 H        -9.8902086060        0.5345020963       -3.3559318605
 H        -5.7123228354        1.8968658772        1.3232537183
 H        -5.8125513416        1.1311628250       -0.2357028337
 H        -5.8808540874        0.2505230852        1.1392597560
 H        -7.9453863968        1.3211443308        3.1120068990
 H        -8.3040606270       -0.2743933054        2.1310847916
 H        -9.3347854438        1.3730424752        2.0412659781
 H       -11.7573517264        6.3153834832       -1.4390543397
 H       -12.1447858389        7.9388868036       -1.3416235640
 H       -12.8975569887        6.9631622297       -0.1469684813
 H        -9.5036441708        7.3832494250       -1.6449461414
 H        -8.5737391634        7.8193612377       -0.2419841139
 H        -9.8342281901        8.8883112360       -0.7734517911
 H       -12.6966945881       11.4323536429        6.2178504914
 H       -14.0324350309       10.4729948611        5.3728316289
 H       -13.3174776862       11.7561719049        4.4914548430
 H       -10.4147504572       10.9518753447        6.1298021815
 H       -11.1004120715       12.1188775932        4.9730980118
 H        -9.7792182136       10.8279470029        4.5679425438
 H        -8.8746410491        4.2892957031        8.0920309323
 H       -10.0009345933        3.1752392781        8.1262425092
 H       -10.4025391304        4.9314680368        8.7405117037
 H       -10.0174620034        2.7153531164        5.3641749432
 H        -8.7098912248        3.8429230642        5.5002639779
 H        -9.9901938983        4.0197043330        4.3773830245
 Na      -11.9871995817        6.2062027683        3.6994454906
