117

 C       -14.0152288768        4.9619454766        5.7330273411
 C       -12.6734279639        4.8686370746        5.1170978819
 O       -12.6328668725        5.0447087461        3.9310428237
 C       -11.3909113093        4.6081719318        6.0016543202
 C       -10.4516834583        5.8769409535        5.8871328054
 O       -10.0498843707        6.1572305982        4.7956109053
 C       -10.2873215816        6.9473996439        6.9623006242
 C        -9.9987895718        8.2910060272        6.2981446700
 C       -11.1802553331        8.8461578444        5.4115936555
 O       -12.0798379954        8.0145138620        5.2797474938
 C       -11.2920577094       10.1591070605        4.7016147990
 C       -11.1447243193        9.7959290148        3.0989779224
 O       -11.9995755847        9.1762048532        2.5254153150
 C        -9.8196013770       10.2321207059        2.2785896641
 C        -9.9151179276        9.9296019840        0.8012524380
 C        -9.9427564608        8.3760300412        0.7838576910
 O        -9.2807261388        7.7521223793        1.5816371463
 C       -10.7962054655        7.5686098756       -0.3788246285
 C       -10.5299764317        6.0182352858       -0.1262308462
 O       -11.3412707999        5.5330660348        0.6134730737
 C        -9.2589781083        5.2339825728       -0.2530369005
 C        -8.9095777256        4.6215527574        1.0464622599
 C        -7.7382435008        3.4990535964        0.7975274896
 O        -6.9932556811        3.7726801373       -0.1116957719
 C        -7.7157108378        2.0995827230        1.3777015395
 C        -8.3324027309        1.1164731350        0.1265277379
 O        -9.3333371083        1.5221545046       -0.4740980429
 C        -7.8215403112       -0.2898954439       -0.0499239628
 C        -8.3772401566       -0.9824756275       -1.3555991069
 C        -9.8774000575       -1.1310448835       -1.3805167330
 O       -10.4621610192       -1.2045160354       -0.3525873858
 C       -10.6372288886       -1.1928905973       -2.8853385041
 C       -10.0946272975       -2.3347696741       -3.8829884849
 O       -10.5687315784       -3.3851412952       -3.7655789969
 C        -8.8833354575       -2.0829716587       -5.0032540360
 C        -9.2495517601       -2.8986882334       -6.2817051338
 C        -8.3155600379       -2.6295517876       -7.5165886960
 O        -8.7144821143       -1.7730016042       -8.3486636640
 C        -6.9105413914       -3.2535320843       -7.7542615601
 C        -7.0173760119       -4.6945866140       -8.5238355926
 O        -7.2814421750       -5.7197175015       -7.9083140120
 C        -6.3477279453       -4.8537133565       -9.8990259853
 C        -6.0471481387       -2.3521384716       -8.6997249279
 C        -6.1497721965       -3.8939078075       -6.4105209726
 C       -12.1574615930       -1.4897489620       -2.4777783228
 C       -10.4675918902        0.2798416447       -3.4179037947
 C        -6.2232073568        1.8197420050        1.7729497858
 C        -8.7126117513        2.0177342985        2.5628862919
 C       -12.3395457555        7.7463854513       -0.3217215051
 C       -10.3115378838        8.1131087940       -1.7116465160
 C       -12.7906367263       10.5974351380        4.8154735153
 C       -10.2958013876       11.3376513597        5.0887629525
 C       -11.9023738707        4.5091245610        7.4951704615
 C       -10.6653554742        3.4198070659        5.4424612848
 H       -14.5894230121        5.6524501508        5.0652381955
 H       -13.9767784756        5.5218716005        6.6216794623
 H       -14.6235982149        4.1025729254        6.0187583217
 H        -9.4396167234        6.7153320915        7.6258903868
 H       -11.0939636302        7.0652148182        7.6870534300
 H        -9.2549249968        8.1105027082        5.5251063125
 H        -9.7217362615        8.9653527128        7.1277273356
 H        -8.8936158358        9.8806409949        2.7206455878
 H        -9.8055424663       11.3286245612        2.4569725672
 H        -9.2947452371       10.4687023619        0.0328561717
 H       -10.8737197073       10.2061499634        0.3491188652
 H        -8.5286250074        5.7799893608       -0.6929391172
 H        -9.4318244394        4.3547851655       -0.9320613705
 H        -9.7378831142        4.0872491502        1.3823741381
 H        -8.7080489309        5.3115025880        1.8596407529
 H        -7.9898636571       -0.7631734850        0.9554816150
 H        -6.7259870928       -0.0485729337       -0.1277482369
 H        -7.9032321545       -2.0117384557       -1.3121764603
 H        -8.0457083033       -0.5013330908       -2.3792909848
 H        -7.9239545705       -2.4425284460       -4.5537453825
 H        -8.8987967517       -1.0680592907       -5.0636402178
 H       -10.2408173446       -2.6402551137       -6.6393953480
 H        -9.3321128086       -3.8993381362       -6.1199698742
 H        -7.0325465335       -4.5765899276      -10.6763387583
 H        -6.1573322872       -5.9268032338      -10.0207154526
 H        -5.4583862819       -4.2260058624      -10.0680748159
 H        -4.9770033542       -2.7042231689       -8.5446662330
 H        -6.0893421464       -1.3227484500       -8.4000557359
 H        -6.1837865551       -2.3516931613       -9.8067419629
 H        -6.7459128448       -4.8070770054       -6.2274201145
 H        -6.2155519672       -3.2253018313       -5.5138285741
 H        -5.0640125185       -4.2102007654       -6.6051636723
 H       -12.2965449762       -2.3219971936       -1.7472763448
 H       -12.6940980333       -1.5941735503       -3.4080434256
 H       -12.4947579594       -0.6238862446       -1.8928477561
 H       -11.2950800418        0.5343507806       -4.0570423426
 H        -9.4163365216        0.3161311724       -3.9017895107
 H       -10.5098062317        0.9490246446       -2.6142697307
 H        -5.8441770787        2.4130618345        2.5886930736
 H        -5.6242019943        1.7784659338        0.9063066377
 H        -6.3497913271        0.7962793619        2.0802157473
 H        -8.4592988819        2.8057571645        3.3772236406
 H        -8.6164776585        1.1262518396        3.1365972026
 H        -9.7664442791        2.3866624263        2.2639861240
 H       -12.7938712833        7.1262640243       -1.0288333392
 H       -12.7036246451        8.7127451715       -0.6244451982
 H       -12.7739739391        7.3800430094        0.6239595571
 H        -9.2519589094        8.4095312854       -1.5958320221
 H       -10.7986421143        8.9913417224       -1.9937665847
 H       -10.4379560804        7.4560922685       -2.5504584592
 H       -12.9416701222       10.8386072960        5.7955278096
 H       -13.4798833113        9.7603842358        4.5154497218
 H       -12.9298639790       11.4266937239        4.2349136105
 H       -10.5143784013       11.6211385097        6.1177762356
 H       -10.6830437986       12.1182696355        4.3511444596
 H        -9.2659960939       10.9815858241        5.0420494618
 H       -11.0632555112        4.3045210719        8.2053603821
 H       -12.5597528918        3.6048510955        7.7949142619
 H       -12.3941316454        5.4050371631        7.7335036636
 H       -11.2119704624        2.5317094013        5.4721534561
 H        -9.7519488908        3.2951770771        6.0966456094
 H       -10.3743627090        3.6440188162        4.4908919470
 Na      -11.3271411970        6.5321596452        2.8541408138
