117

 C       -14.1563655570        5.0682344888        5.7548639871
 C       -12.7924860864        4.9917914709        5.2215915392
 O       -12.4776754659        4.9947829976        4.0392978699
 C       -11.4730174540        4.6653389734        6.1039914384
 C       -10.6089040597        5.9942079119        5.7828813230
 O       -10.0536663556        6.0478651247        4.7162460233
 C       -10.4057220049        6.9660092104        6.8977972986
 C        -9.9474410895        8.3344985439        6.2707158633
 C       -11.2548213682        8.7614283461        5.3768176845
 O       -12.1690057870        8.0223693732        5.1725005649
 C       -11.2296925401       10.1673078592        4.5774727453
 C       -10.9728813398        9.8905929499        3.0537936366
 O       -11.7662673248        9.1471667801        2.4974540538
 C        -9.9071130301       10.4904453182        2.3050534693
 C       -10.0290117378        9.8739800881        0.9035344244
 C        -9.9333486165        8.2658545113        0.6551389766
 O        -9.1712988265        7.6063129189        1.3657808457
 C       -10.7417698302        7.6700848185       -0.5134596098
 C       -10.4644587547        6.0576845183       -0.0672336031
 O       -11.3862896718        5.5229727743        0.5674865239
 C        -9.2490175592        5.1633076833       -0.3772322936
 C        -8.7691894054        4.5056260882        0.9472811419
 C        -7.7193546793        3.5290751930        0.6923441200
 O        -6.8102169137        3.7476437782       -0.1168691326
 C        -7.8155487343        2.1233675528        1.3142559067
 C        -8.4407606761        1.3048049081        0.2181296546
 O        -9.3594850870        1.7037896486       -0.3917986902
 C        -7.7804812584       -0.1168622582        0.0194337758
 C        -8.2390750045       -0.6912500655       -1.3875763716
 C        -9.8127426415       -1.0410591820       -1.4352478193
 O       -10.5593889166       -1.0514002355       -0.4539056168
 C       -10.6013153064       -1.2174596066       -2.7981887079
 C       -10.1370672580       -2.4107956804       -3.8218911481
 O       -10.6117904089       -3.5251681435       -3.7957428970
 C        -8.9416816295       -2.2581145450       -4.8113773031
 C        -9.2357183996       -2.8364478724       -6.1839858182
 C        -8.2128495521       -2.6194594919       -7.3685744850
 O        -8.6073273281       -1.7950885922       -8.2062101237
 C        -6.8663957549       -3.4414640495       -7.7064159856
 C        -7.0178538262       -4.8966121369       -8.5295267548
 O        -7.3541922690       -5.8009847501       -7.8602274705
 C        -6.7029247610       -5.0626214231      -10.0364373966
 C        -6.0085479345       -2.4518688740       -8.4527724770
 C        -6.0877076602       -3.7722058494       -6.4700673108
 C       -12.0440375322       -1.5448999016       -2.4983024246
 C       -10.5864432328        0.2897046775       -3.3519412383
 C        -6.3532218677        1.6242341096        1.6739687674
 C        -8.7489679478        1.9615495944        2.5312500526
 C       -12.1822597769        7.9912485328       -0.1698425239
 C       -10.2217211608        8.2365932776       -1.8685317395
 C       -12.7203605486       10.6254355602        4.6760426453
 C       -10.2959510941       11.2196204840        5.2614809869
 C       -11.7582083998        4.5254928711        7.6350730598
 C       -10.9391220624        3.3098948807        5.4621366883
 H       -14.9556356079        5.2752518846        5.1086125919
 H       -14.3261969292        5.7462495621        6.6207006751
 H       -14.2138085285        4.1702779179        6.2342896171
 H        -9.6537821183        6.5605269151        7.5762995406
 H       -11.2579353491        7.0821535228        7.5739534890
 H        -9.2040176667        8.1230382370        5.4938403626
 H        -9.7077809602        9.0677853182        7.0578859931
 H        -8.9542849894       10.3377615011        2.7584791901
 H       -10.0572876192       11.4957850537        2.3563580130
 H        -9.0623276242       10.0416150851        0.2803952467
 H       -10.6567658913       10.3703235363        0.1499425337
 H        -8.3911899202        5.8598317791       -0.8736784718
 H        -9.5271443761        4.4504108447       -1.1969858773
 H        -9.5060108249        4.0678580334        1.5620231150
 H        -8.3548540166        5.3998432574        1.6820824125
 H        -8.1609880292       -0.6937642226        0.8317221578
 H        -6.6990987315        0.0149066165        0.1726374632
 H        -7.7187677494       -1.7064188839       -1.4107307710
 H        -7.9432632934       -0.1633047151       -2.3215036742
 H        -8.1244911352       -2.8761999537       -4.3964572903
 H        -8.7701390249       -1.2086201977       -4.6450304829
 H       -10.2199550874       -2.5959188173       -6.6160543654
 H        -9.2601275716       -3.9119238522       -6.1497628118
 H        -7.5779048653       -4.8996921161      -10.7664154340
 H        -6.3380161662       -6.1054727641      -10.1587662191
 H        -6.0035147546       -4.3721897934      -10.3672452428
 H        -4.9455969585       -2.3446277137       -8.2862354503
 H        -6.5289650494       -1.4729031510       -8.2760346633
 H        -6.1105047983       -2.4936024084       -9.5391287968
 H        -6.6470580576       -4.2560103040       -5.7045285663
 H        -5.6855382164       -2.7495880880       -6.1141499158
 H        -5.2379622701       -4.4542184801       -6.7569724578
 H       -12.1433978347       -2.2937737984       -1.6082885397
 H       -12.4506533042       -1.9416622320       -3.3981448497
 H       -12.4819783128       -0.6877029245       -2.0805334465
 H       -11.4577599942        0.4580807825       -3.8891976595
 H        -9.6331378819        0.4755489080       -3.9427766849
 H       -10.5446028901        0.9244529104       -2.4476618014
 H        -6.0359547120        2.1270162198        2.5924506085
 H        -5.8125726327        1.8299364855        0.7688009230
 H        -6.2525961304        0.4946690878        1.8554077776
 H        -8.5665120310        2.6815441954        3.3770976874
 H        -8.5439431250        0.9795422893        3.0719848489
 H        -9.7746219826        2.1562907891        2.2621732588
 H       -12.8567236520        7.6235781145       -0.9750667489
 H       -12.3878731319        9.0635784305       -0.2371485037
 H       -12.5303519297        7.5991230053        0.7308283350
 H        -9.2498836279        8.8436645319       -1.7481977767
 H       -10.9077543271        8.9123763313       -2.3549894626
 H       -10.0549639629        7.4627958190       -2.6224535113
 H       -13.0573285700       10.9128674052        5.6770418571
 H       -13.2651151142        9.8709737442        4.3136195175
 H       -12.8149101059       11.4726838755        4.0573437431
 H       -10.7548361791       11.4136663468        6.2438271137
 H       -10.2736959362       12.0855470673        4.6536265130
 H        -9.3581372459       10.6554651269        5.4891578925
 H       -10.8095137025        4.2355971021        8.1980302787
 H       -12.3298523164        3.6206608694        7.9091416539
 H       -12.2537223314        5.4093560899        8.0792502130
 H       -11.8385054364        2.7866616472        4.9950503917
 H       -10.3842447868        2.5471287540        6.0878214696
 H       -10.3853173026        3.6432515195        4.5728483908
 Na      -11.3621433927        6.4876674996        2.8875127801
