117

 C       -14.7601586337        4.9815966171        6.2604856186
 C       -13.5320552136        5.3507260634        5.5567451226
 O       -13.5355099835        5.5870380979        4.3377938816
 C       -12.1064717115        4.7391635399        6.1870481555
 C       -10.8953783628        5.7992305096        5.8964101061
 O       -10.2525254859        5.7359433883        4.8460626597
 C       -10.6330593178        6.9946186057        6.8043723995
 C        -9.9471833957        8.0875949573        6.0008636596
 C       -11.0398229174        8.7033068655        5.0694086246
 O       -12.0057992789        7.9953947109        4.8458194041
 C       -10.8549252895       10.0332786358        4.2943971384
 C       -10.5656359440        9.6539276917        2.8428909642
 O       -11.0540597245        8.7332131368        2.2160176867
 C        -9.5303460824       10.4665647765        2.1950720337
 C        -9.3710996403       10.2885416534        0.6772224705
 C        -9.3827775555        8.7065787985        0.5055665454
 O        -8.5646318305        8.0092366691        1.1040375521
 C       -10.0393484987        7.8991676616       -0.6460428315
 C       -10.2140990401        6.4229965940        0.0075972104
 O       -11.2071774825        6.0162348491        0.6435140279
 C        -9.0951388367        5.3676204060       -0.1499554572
 C        -8.5334160457        4.7093866690        1.0501804440
 C        -7.4941519094        3.7711827342        0.6154226205
 O        -6.4814169195        4.1212483795        0.0481146806
 C        -7.7804943576        2.1923909744        0.9932930595
 C        -8.6732172694        1.7809912480       -0.1815048348
 O        -9.7293580627        2.2589539149       -0.5430504447
 C        -7.9760055197        0.6311444116       -1.0983574037
 C        -8.9658600820        0.3425452839       -2.2204570360
 C        -9.9184886815       -0.8095620065       -1.9134241156
 O       -10.1799547822       -1.3218846019       -0.8438530119
 C       -10.7839370327       -1.3870874940       -3.0752850325
 C       -10.0611620311       -2.5892329358       -3.4926603918
 O       -10.3488126604       -3.7207358730       -3.0705718507
 C        -8.8531937673       -2.3918483938       -4.3221776264
 C        -8.4160356245       -3.5556900268       -5.2506390571
 C        -7.6341429877       -2.9387897536       -6.3753991193
 O        -7.7021576607       -1.7158777415       -6.6028453920
 C        -6.8787983662       -3.9700534091       -7.2884958721
 C        -7.9846997552       -5.2057623455       -7.5856299585
 O        -7.8723900132       -6.2759012046       -7.1350320314
 C        -9.0913708586       -4.6724243865       -8.4809579805
 C        -6.2533870493       -3.4692717306       -8.7008722775
 C        -5.7208801076       -4.7140845147       -6.4926591104
 C       -12.2419401643       -1.7429259432       -2.5731872435
 C       -11.1113075553       -0.2890133517       -4.1438682983
 C        -6.3557088149        1.5810762514        1.0885454393
 C        -8.7741700810        1.9348963343        2.1936010272
 C       -11.4250160239        8.3945172485       -1.1648136228
 C        -9.1072443166        7.8859307235       -1.9285000618
 C       -12.2828446673       10.7090419227        4.1733960143
 C        -9.9679834621       11.1159284357        4.8148786207
 C       -12.1392033470        4.4670406890        7.7191077991
 C       -11.8600102316        3.4050215040        5.4309790548
 H       -14.9479943410        3.9025155073        6.3818480725
 H       -15.7400060061        5.2867041206        5.6583979710
 H       -14.7518843251        5.4011361943        7.2750855341
 H       -10.1905544339        6.6802114530        7.7652323575
 H       -11.6301625281        7.4311673398        7.0128446466
 H        -9.2472205245        7.6313845925        5.2807480116
 H        -9.4754737422        8.8280928848        6.6684049952
 H        -8.4829057169       10.1334099281        2.6103946750
 H        -9.6462953982       11.5531267302        2.4707049380
 H        -8.3330906382       10.5934324321        0.4558839848
 H       -10.1235877316       10.7166964377        0.0967108757
 H        -8.3397657084        5.7156639020       -0.8133519433
 H        -9.5285275565        4.6664085126       -0.6867919559
 H        -9.3185062909        4.1290226155        1.6312349368
 H        -8.1392599368        5.3517659947        1.6992496641
 H        -7.8651596480       -0.2818714229       -0.5177174468
 H        -6.9358654616        0.9409031829       -1.3281433802
 H        -8.2924345049        0.1456024230       -3.0318419798
 H        -9.6661252892        1.0886122117       -2.4892273604
 H        -7.9940683161       -2.1353828024       -3.6018195766
 H        -8.9534616135       -1.4192391090       -4.6734756452
 H        -9.2791511868       -4.0058137590       -5.8346761979
 H        -7.9045055853       -4.3598059870       -4.7137524536
 H        -9.3709530562       -3.6520331749       -8.1136335980
 H        -9.9668330002       -5.3325967226       -8.4976827682
 H        -8.8488152638       -4.5652665047       -9.4733317712
 H        -5.2583333919       -3.8613878282       -8.7765677397
 H        -6.1058567262       -2.3579570553       -8.5427012896
 H        -6.8975714268       -3.6463951269       -9.5920865598
 H        -6.1131674434       -5.5533542773       -5.9951776815
 H        -5.3804002314       -3.9782461149       -5.7273663992
 H        -4.8314821734       -4.9448855581       -7.0532560279
 H       -12.3274018272       -2.0360590656       -1.5086801408
 H       -12.6119270500       -2.6535996428       -3.0515085421
 H       -12.7340102585       -0.8193322125       -2.8921221353
 H       -11.9147692709       -0.6459289760       -4.7754727275
 H       -10.3015064416       -0.1105452014       -4.8098040193
 H       -11.3307767747        0.6889549588       -3.5860906183
 H        -5.8092657405        1.9272234956        1.9931407520
 H        -5.7764383335        2.0414958838        0.2617393516
 H        -6.5427670116        0.4518896988        1.1956588963
 H        -8.3629954709        2.3751130963        3.0398915053
 H        -8.8981469183        0.8584424397        2.3890056034
 H        -9.7737897572        2.0863381406        2.1243073824
 H       -11.4154576381        7.7601582011       -2.0920852817
 H       -11.6089518092        9.4948480077       -1.2383686318
 H       -12.2791901190        8.0825254352       -0.6345725295
 H        -9.2844975123        8.6735663922       -2.7310993250
 H        -9.2242793142        7.0062680810       -2.5140550020
 H        -8.0684459626        8.0905985166       -1.6647726627
 H       -12.5548137357       11.1265173834        5.1946595781
 H       -13.1176050060       10.0599946387        3.8376708879
 H       -12.2054109014       11.7150809924        3.5638435543
 H       -10.1100778381       11.3281497715        5.8552768272
 H       -10.2080981518       11.9905158866        4.3060543061
 H        -8.9269687076       11.0113703202        4.5059975432
 H       -11.1969650612        4.1677895150        8.0597510701
 H       -12.9182276949        3.8371660708        7.8500327409
 H       -12.3985720217        5.3466789319        8.3020219654
 H       -12.3781637209        2.5141304678        5.8251164588
 H       -10.8546734334        3.2156233247        5.4273608017
 H       -12.2884932857        3.5445551867        4.3923924346
 Na      -11.6280240097        6.3950378315        2.8330956157
