117

 C       -13.1501839254        6.7741621794       -5.5934931362
 C       -12.3046792887        6.7050764120       -6.9122859919
 O       -12.2961485546        7.6488088583       -7.6647419375
 C       -11.4306570163        5.4422646766       -7.1144766024
 C       -10.5271407590        5.3230785574       -5.8516808745
 O       -10.9006474248        4.7692067642       -4.8110104355
 C        -9.0616154076        5.7275708786       -5.8198783102
 C        -8.2084207755        4.5869777803       -5.1334056466
 C        -7.9104757634        4.9209155685       -3.6239187504
 O        -8.5301367255        5.8787893786       -3.1698184034
 C        -7.0936769062        3.9462310929       -2.7730953010
 C        -6.3205278134        4.8423155331       -1.7441192317
 O        -5.1178951950        4.8303183314       -1.7154850551
 C        -7.1925944907        5.6862648487       -0.7487937959
 C        -6.2807162087        5.8732821983        0.5049868589
 C        -6.4783396472        4.7344043837        1.5185360049
 O        -6.9932657625        3.6569573343        1.2134507343
 C        -5.8126791551        4.9959823768        2.9531939368
 C        -6.6158706942        6.1599058199        3.6963028703
 O        -6.7723616620        7.2290808408        3.1731763742
 C        -7.1603010178        5.9510624305        5.0992020694
 C        -8.6954929080        6.1122357293        5.2832154689
 C        -9.4690230918        5.0506227396        4.4931695874
 O        -9.0425520152        3.9028318680        4.5007578438
 C       -10.6863560428        5.5349431116        3.6323551947
 C       -11.4365401763        4.2205043752        3.0787588542
 O       -10.8474658418        3.3749925868        2.4708966213
 C       -12.8486864098        4.0191367398        3.5375035004
 C       -13.5180112962        2.7690367202        3.0059521593
 C       -13.9450293873        2.9465285884        1.5105251760
 O       -14.0509518709        4.0447823614        1.0395521468
 C       -14.4471945515        1.6866799363        0.6197464123
 C       -13.3568368483        0.5883244176        0.7100596507
 O       -13.1783372575        0.0683121849        1.8569446932
 C       -12.4761756114        0.2266666921       -0.4631188465
 C       -11.2676257530       -0.6959754010       -0.1825761114
 C       -10.1614535349        0.1491284669        0.4206042198
 O       -10.1804845529        1.3790664641        0.4478222870
 C        -8.9555744092       -0.6920926989        1.0449561671
 C        -9.2401001310       -0.5581249996        2.5763564212
 O        -8.7217275064        0.4344496717        3.1212768698
 C       -10.2452517333       -1.4703491296        3.2874668664
 C        -8.8397022210       -2.1556224780        0.5843316687
 C        -7.6212648389        0.0213625912        0.6773865792
 C       -15.6983259446        0.9437333804        1.2739857131
 C       -14.9165264083        2.1442645375       -0.7596596575
 C       -11.6198649890        6.4494310230        4.4895360857
 C       -10.1530387646        6.3883788817        2.4619347496
 C        -5.7918461549        3.7508308030        3.8152523042
 C        -4.3020318116        5.3919547885        2.6104113585
 C        -8.0259236644        2.8521344963       -2.1457101600
 C        -5.9957971550        3.2572322237       -3.6947849358
 C       -12.3737950593        4.1514488819       -7.1388118435
 C       -10.5729751527        5.4749472280       -8.4778903645
 H       -13.2457436248        5.7639728012       -5.2305830162
 H       -14.0838927707        7.3251868625       -5.8409972292
 H       -12.6062976414        7.3482998915       -4.8346972025
 H        -8.9722700391        6.7257241766       -5.3257233537
 H        -8.7743927833        5.9541803340       -6.9109693591
 H        -7.3453746077        4.3197972715       -5.6924434028
 H        -8.7960750507        3.7118015312       -5.2279041507
 H        -8.2532481093        5.3520992875       -0.6260280990
 H        -7.3746398764        6.7216096570       -1.0951733972
 H        -6.5493655484        6.7930263168        0.9703697611
 H        -5.2029054651        5.8897347557        0.0831811254
 H        -6.5915006804        6.7054552576        5.6892655575
 H        -6.7573925813        5.0051765966        5.5682082448
 H        -8.9216315206        7.1896229916        5.0331590277
 H        -9.1108967810        6.0159425333        6.2800018179
 H       -13.4199454189        4.8948089898        3.4007057998
 H       -12.8154489634        3.8826772084        4.6273010709
 H       -14.3340709525        2.3796138071        3.5855191593
 H       -12.7765603058        1.9549816425        2.9402671788
 H       -11.9858325350        1.1230646665       -0.8281404838
 H       -13.2048206230       -0.0887013005       -1.2583494943
 H       -10.8361905304       -0.9794320764       -1.1082369931
 H       -11.3596097558       -1.5457718592        0.3572761386
 H       -10.3162830194       -1.1386589081        4.3055463287
 H        -9.9390614689       -2.5345299723        3.2428704099
 H       -11.2386742131       -1.4973438976        2.7208132916
 H        -9.0790520458       -2.1599559063       -0.5012301880
 H        -9.5034679042       -2.8402635702        0.9926641114
 H        -7.8604965590       -2.5618356606        0.8384827937
 H        -7.5239335387        1.0837289259        0.8037332932
 H        -7.3542073627       -0.2354360749       -0.3634149000
 H        -6.8677238852       -0.4773393564        1.3121503612
 H       -15.4207136740        0.6506243234        2.2512107277
 H       -15.8960273604       -0.0608008027        0.7756730300
 H       -16.6621339782        1.4873702024        1.2702839353
 H       -15.2526467089        3.1604234747       -0.7367041767
 H       -15.7008638819        1.4733059171       -1.2591170744
 H       -14.1472507212        2.0554743870       -1.5157416803
 H       -10.9964447663        7.1287410473        5.0842683736
 H       -12.1562050455        5.9167731194        5.3148848458
 H       -12.2616508378        7.0555784740        3.9032066251
 H       -10.3252576633        5.8295911117        1.5507941852
 H        -9.1064394239        6.5275526156        2.5639132961
 H       -10.6016328759        7.3513750358        2.3011181546
 H        -5.1729287534        3.9823651961        4.7691193198
 H        -5.6507746789        2.8395543371        3.2704607348
 H        -6.7813077357        3.5630188140        4.2084690947
 H        -3.7432535976        4.7810629484        1.8500824798
 H        -3.7641594887        5.4602442083        3.5791359156
 H        -4.1323757283        6.3857813343        2.2150337341
 H        -8.9726770781        2.8602686338       -2.6816068425
 H        -8.2529932767        3.1003268590       -1.1089352544
 H        -7.6697294130        1.8899760992       -2.2174965529
 H        -6.3797104624        2.5017857238       -4.3719811688
 H        -5.1883928525        2.8517545258       -3.0034151156
 H        -5.4610152743        4.0985956048       -4.2221333175
 H       -12.0246153265        3.6432527987       -6.2394347030
 H       -12.0233470824        3.5569818110       -8.0102559515
 H       -13.4015285167        4.2244883859       -7.3205423048
 H       -10.1023354078        6.4634767109       -8.6175775672
 H       -11.3977152549        5.5214736233       -9.1577580538
 H        -9.9545315877        4.6293621935       -8.6730942295
 Na       -8.6909310921        2.6392286876        2.3539627352
