117

 C       -14.9039837950        5.0456816366        6.1237713101
 C       -13.6157193300        5.3692883140        5.2871616607
 O       -13.5787908390        5.7904603342        4.1601654599
 C       -12.3366938218        4.8941199393        6.0310406994
 C       -11.2560863171        5.8585772241        5.5777066647
 O       -10.8622906795        5.9098571081        4.4509219023
 C       -10.5540580581        6.7982363874        6.6763547705
 C       -10.1737864768        8.1493706211        6.0431915010
 C       -11.1945589245        8.8455579115        5.1981038223
 O       -12.3212353593        8.4673637008        5.0662089163
 C       -10.7317319711       10.1447061499        4.4499114818
 C       -10.3581562377        9.6208425012        2.9992745347
 O       -10.6955721638        8.5181454022        2.6241399557
 C        -9.4582346243       10.6447620362        2.2168057071
 C        -9.5267149123       10.3239328831        0.6471485703
 C        -8.8990105344        9.0125710778        0.0039983182
 O        -7.7488913781        8.8186926204        0.2090187168
 C        -9.5785352191        7.9062809403       -0.8971042694
 C        -9.7425947137        6.6393396120        0.0848163183
 O       -10.7082665032        6.5346580762        0.8273124499
 C        -8.7533959824        5.4622934945       -0.1643677479
 C        -8.5440128346        4.6826208038        1.1525408821
 C        -7.4557353177        3.6969422378        0.8517760411
 O        -6.3864974121        4.2485200700        0.7960426229
 C        -7.7967555991        2.1118648213        0.7324829830
 C        -8.8821415140        1.9056775821       -0.4100272994
 O        -9.9944862566        2.2754005228       -0.0536519483
 C        -8.4758181338        1.5003839518       -1.8472368548
 C        -9.6717198431        0.9674580304       -2.7650300666
 C       -10.1596013331       -0.3847308775       -2.1586061884
 O        -9.9453306221       -0.6310169369       -0.9895818632
 C       -10.9095736312       -1.4860225562       -2.9533062382
 C        -9.9378755870       -2.8000455462       -3.4395479398
 O       -10.4699047104       -3.8696483249       -3.4285193320
 C        -8.6617036021       -2.5469758457       -4.1740748486
 C        -8.1342423712       -3.8954016154       -4.6740105419
 C        -7.1320123041       -3.5669496450       -5.8160877069
 O        -6.5918713655       -2.5040173723       -5.7747474824
 C        -7.1309849988       -4.5483452754       -7.0187836411
 C        -8.3954218484       -5.4136246035       -7.1119484869
 O        -8.2682442049       -6.6592063231       -7.3633304563
 C        -9.8300470959       -4.9337608160       -7.3380377154
 C        -6.9257299539       -3.7463129956       -8.4284039873
 C        -5.8874388229       -5.4294289171       -6.8399418230
 C       -11.8759014997       -2.1619064808       -1.8501959322
 C       -11.5296496403       -0.9622333501       -4.2034693377
 C        -6.3498714181        1.4471537564        0.5224776209
 C        -8.5240810646        1.4719154116        1.9373993840
 C       -10.9615955813        8.2781503292       -1.4604497483
 C        -8.5667440748        7.5661140646       -1.9713871933
 C       -11.8624790524       11.0379656922        4.0543157947
 C        -9.4304968959       10.7901404120        5.0965466995
 C       -12.4048544083        4.6745177948        7.5517633283
 C       -12.3021418260        3.4837293926        5.2286237114
 H       -14.8028518281        4.1016322630        6.7852264899
 H       -15.7314608690        4.9106458890        5.4571800558
 H       -15.1135459062        5.8640950092        6.9146520131
 H        -9.6633479210        6.2399797065        7.0441433215
 H       -11.1700455942        7.0182681340        7.5677809023
 H        -9.2135496432        7.9758997746        5.5233679366
 H        -9.7542139587        8.7446029464        6.8550773865
 H        -8.3527789732       10.5996527323        2.5372776923
 H        -9.7360804246       11.7491426520        2.2919262443
 H        -8.8061153404       10.9724154186        0.2416680814
 H       -10.5884548908       10.4338578697        0.3800974070
 H        -7.9271622547        5.8939924082       -0.5694798967
 H        -9.1542197361        4.8590439900       -0.9920731288
 H        -9.4423256187        4.2152271944        1.4880684218
 H        -8.1610920233        5.5897726519        1.9438694931
 H        -7.6731828790        0.7643136661       -1.6529393571
 H        -8.0393742972        2.5085275512       -2.0916794510
 H        -9.3389487579        0.9072857112       -3.8412954850
 H       -10.4157142603        1.7074131008       -2.5500792937
 H        -7.9820956599       -1.9445180030       -3.6133987283
 H        -8.8151322773       -1.8354849759       -5.0699202497
 H        -8.8791795321       -4.5464867737       -4.9932867773
 H        -7.7314068964       -4.3625268248       -3.7280746065
 H        -9.9194849121       -4.4528258650       -8.2833737334
 H       -10.3094061093       -4.2213763812       -6.7428918669
 H       -10.4456692082       -5.8922551670       -7.4163828261
 H        -7.0727902045       -2.6676872567       -8.3248092741
 H        -7.8149975078       -4.0212044487       -9.0162645627
 H        -5.9439181712       -3.9984087740       -8.8005603154
 H        -5.4390143844       -5.0644455917       -5.8783363773
 H        -5.1409477943       -5.2486337745       -7.5349674470
 H        -5.9927363450       -6.4797547357       -6.9686507125
 H       -11.2181913001       -2.5189774455       -1.0212282350
 H       -12.6748534155       -2.7809102749       -2.3200050629
 H       -12.4410906445       -1.2985000054       -1.5195454445
 H       -12.0622079767       -1.6899719522       -4.7905693942
 H       -10.7646523600       -0.3509519451       -4.7995250008
 H       -12.2886898853       -0.3055553006       -3.9801895960
 H        -5.6249602759        1.6140510068        1.3677379966
 H        -5.8603942986        2.0712260284       -0.2890374423
 H        -6.7137626813        0.4765239398        0.2231307238
 H        -8.1792235388        1.8121770926        2.8823484941
 H        -8.4215252936        0.4205742611        2.0371003944
 H        -9.5939281627        1.7352301015        1.9698673688
 H       -11.2085330159        7.5230385247       -2.2348506950
 H       -11.0469124577        9.2619128045       -1.9149195221
 H       -11.6951794527        8.0617772432       -0.6395143756
 H        -8.6202300828        8.4124856171       -2.6249194370
 H        -8.6753889499        6.6284873767       -2.6242315926
 H        -7.5186843494        7.5270108518       -1.5970117044
 H       -12.5766080506       11.3462901172        4.8836416457
 H       -12.5826141393       10.4657667198        3.4374127651
 H       -11.5204386065       11.8546140133        3.3741045339
 H        -9.5380132404       11.2218274725        6.0840094896
 H        -8.9976304302       11.6170105522        4.5391198620
 H        -8.7408341459       10.0480691141        5.2756710352
 H       -11.5059503911        4.2086366408        7.8143080122
 H       -13.1113971387        3.8410804161        7.7191859115
 H       -12.6874346250        5.5086121133        8.1157510428
 H       -13.1530229500        3.0086218809        5.5977081397
 H       -11.3652171850        2.9443603403        5.5555627892
 H       -12.2093360468        3.5648255666        4.2247622231
 Na      -12.1833239682        6.8226469436        2.5626890332
