117

 C       -15.0528302443        5.1935686323        6.0263092746
 C       -13.7548080565        5.3211872429        5.2480103323
 O       -13.8194249900        5.8121825473        4.1326706587
 C       -12.3815213267        4.7495364603        5.9440324217
 C       -11.1208341427        5.8178105088        5.5654042454
 O       -10.8875050484        5.9535413255        4.3923133159
 C       -10.6142195504        6.8744514773        6.6141997538
 C       -10.1021073876        8.0928683296        5.9263601784
 C       -11.1763348436        8.9707830772        5.2240282043
 O       -12.3781924885        8.6797061709        5.2153660513
 C       -10.6546443222       10.1908811255        4.3894261120
 C       -10.1908133737        9.5793512169        2.9941050049
 O       -10.6116772634        8.4938881989        2.6451220534
 C        -9.3454049646       10.3931346903        2.0831007918
 C        -9.5979775307       10.3377443851        0.5512118027
 C        -8.7498007857        9.1774288580        0.0873475865
 O        -7.5367496650        9.1377112904        0.1134623002
 C        -9.4455758914        7.9488869555       -0.7785334796
 C        -9.6432761529        6.6103782931        0.1104437697
 O       -10.5846500535        6.3917611154        0.8251177727
 C        -8.6608928217        5.5680023337       -0.1296132332
 C        -8.6979581250        4.7089561986        1.1282845179
 C        -7.4813695207        3.7404548869        0.9682117379
 O        -6.3400061035        4.1615856679        1.0381018145
 C        -7.8481301393        2.1556595450        0.6193167529
 C        -8.9797766620        1.9574679730       -0.4929128739
 O       -10.1805472879        2.0429919893       -0.1823195404
 C        -8.6378879548        1.6731807281       -2.0119622406
 C        -9.7457383847        0.8352632353       -2.7968742249
 C        -9.9996855611       -0.4434268214       -2.1084681632
 O        -9.8347998177       -0.4907899383       -0.8928755717
 C       -10.7609675092       -1.5187235204       -2.8946876922
 C       -10.0220778184       -2.7272377967       -3.4565838710
 O       -10.5497256980       -3.8393167532       -3.4619349907
 C        -8.7170995798       -2.6374013619       -4.1653524622
 C        -7.9908572441       -3.9499341002       -4.5201521079
 C        -7.2189150689       -3.6748416193       -5.8050879039
 O        -6.4062209158       -2.7281623886       -5.7037159942
 C        -7.1529230708       -4.5936138412       -6.9908819698
 C        -8.4540637261       -5.5946850888       -7.1709403850
 O        -8.3583599805       -6.7775446927       -7.2847704684
 C        -9.8134654118       -4.7832754305       -7.1047705050
 C        -7.1615557586       -3.7325185515       -8.2757663259
 C        -5.8794037471       -5.6185103418       -6.7996830988
 C       -11.8362561793       -2.1879124574       -1.8716529342
 C       -11.6097548413       -1.0147232801       -4.1228055713
 C        -6.4696252305        1.4235127577        0.3035659818
 C        -8.3537485266        1.5088542544        1.9224432068
 C       -10.9129564354        8.3177144610       -1.3825177636
 C        -8.5614982004        7.6558853724       -1.9719480047
 C       -11.9364528996       11.1864676427        4.2387724370
 C        -9.3731018024       10.7846455951        4.9507597873
 C       -12.5800624399        4.7120667601        7.4884727335
 C       -12.1245368251        3.4802651061        5.1229663320
 H       -15.1882103925        4.1945668541        6.4857505264
 H       -15.7399198993        5.3163930089        5.1265279341
 H       -15.2205615900        5.9080234465        6.8076144998
 H        -9.9738207152        6.3062899712        7.3026258594
 H       -11.4669510778        7.1951729414        7.2028391299
 H        -9.3044675340        7.7727016986        5.2271250665
 H        -9.4263046832        8.6270322599        6.5991213379
 H        -8.3103911880       10.0648736653        2.1659948108
 H        -9.2716456679       11.4863753609        2.3502422373
 H        -9.1513333743       11.3273507035        0.2136469685
 H       -10.6591923723       10.0227120726        0.3725237525
 H        -7.6996542873        6.2167660003       -0.3251966608
 H        -8.8202032171        5.0553927326       -1.1787967884
 H        -9.5927745934        4.0591332571        1.1368132693
 H        -8.6383799048        5.4101646517        2.0475154501
 H        -7.6890597327        1.0818533237       -2.0831751513
 H        -8.5014125405        2.7317749906       -2.2489475695
 H        -9.3103929053        0.5696330468       -3.7582400903
 H       -10.7780576286        1.4495441673       -2.8259361201
 H        -8.0349702959       -1.8765062713       -3.8631379112
 H        -8.9621338120       -2.2432071995       -5.2040528809
 H        -8.6259807989       -4.7730072880       -4.7472997226
 H        -7.3901416817       -4.2054106127       -3.6997493649
 H       -10.1869454103       -4.4387641229       -8.0225090132
 H        -9.7271548982       -3.8040042950       -6.6149970383
 H       -10.5883490870       -5.3828491655       -6.6797053710
 H        -7.6988661940       -2.7479808771       -8.0839527006
 H        -7.8157828420       -4.1774376607       -8.9676393937
 H        -6.1040131458       -3.5468245415       -8.5087459667
 H        -5.4355865416       -5.3685807350       -5.8626817463
 H        -5.0568962230       -5.5121084552       -7.4729918753
 H        -6.1463488940       -6.6590684671       -6.9277036054
 H       -11.2782850768       -2.5109176912       -0.8831054088
 H       -12.3520948309       -2.8593514733       -2.4610324916
 H       -12.6218962985       -1.4980283204       -1.6734511742
 H       -12.2869446000       -1.7247213760       -4.5221877082
 H       -11.0746249243       -0.3920556267       -4.9399547042
 H       -12.2653976051       -0.2840708859       -3.6849639581
 H        -5.8823246505        1.5833007291        1.2188065933
 H        -5.9184536552        1.9888358955       -0.4741741967
 H        -6.8078935765        0.4121137058        0.0587477645
 H        -7.8498657106        1.7415571571        2.8804063236
 H        -8.1242424325        0.4847294455        1.9299900611
 H        -9.4443552007        1.6734548397        2.1619893352
 H       -11.0598573411        7.6622889022       -2.2268916207
 H       -10.9628464677        9.3052236959       -1.8819139481
 H       -11.7697340049        8.0777391466       -0.6818495686
 H        -8.6785670394        8.4529180546       -2.7243711386
 H        -8.7929249195        6.7332601488       -2.3573641918
 H        -7.5289325388        7.5269514581       -1.7686156660
 H       -12.1937809966       11.5400446326        5.2491398422
 H       -12.7949334341       10.7869728188        3.9114912977
 H       -11.6702379247       11.9981043723        3.6027841920
 H        -9.4192940226       10.8467600717        6.0247299625
 H        -9.1871566732       11.8514572878        4.6940516022
 H        -8.5124734721       10.1436179685        4.9030258130
 H       -11.6157270965        4.4415724237        7.9308715942
 H       -13.1714758432        3.8359850523        7.8561763417
 H       -12.9799260024        5.6310716661        7.7476256796
 H       -12.7144917960        2.7758568453        5.6045000732
 H       -11.1217673835        3.2358008324        5.2639929087
 H       -12.2676363982        3.5681003618        4.0883638584
 Na      -12.1728676986        6.8235855903        2.5356972774
