117

 C       -15.3065163229        5.3574599398        5.7528468775
 C       -13.8676779537        5.5067471138        4.8534904325
 O       -13.9400963997        5.9120138184        3.7279904815
 C       -12.4979373696        4.8092890229        5.6466655330
 C       -11.4070022516        5.8182830903        5.3622645275
 O       -10.9410220835        5.8842931561        4.2606837489
 C       -10.9069032837        6.8695696801        6.3817200954
 C       -10.0893486669        8.0329406195        5.8683130593
 C       -11.0098672490        9.1671792406        5.4977529989
 O       -12.2261248551        9.1565745567        5.6116325592
 C       -10.3834407594       10.3549330207        4.4988245162
 C       -10.1518303610        9.8202185342        3.1186930116
 O       -10.6867770177        8.7857826924        2.7494376173
 C        -9.3274380350       10.6775718401        2.1434350717
 C        -9.4826701577       10.4142146488        0.6052391834
 C        -8.6708393432        9.4139348641       -0.1097515863
 O        -7.4948722007        9.3933877758       -0.2217321451
 C        -9.4714508126        8.1387145670       -0.9207675731
 C        -9.5541816850        6.8897264638        0.0016448263
 O       -10.5665198785        6.7216837122        0.6410278875
 C        -8.2894504352        6.0293639411        0.3087102446
 C        -8.6892691249        4.6517560578        0.8713406313
 C        -7.5865080472        3.3657614897        0.9535751340
 O        -6.5253113378        3.5159985202        1.5068585189
 C        -7.9003770476        1.8909546237        0.3554261282
 C        -9.1346691218        1.9523010909       -0.6004119900
 O       -10.2196076026        2.2203461652       -0.0188491156
 C        -8.9667166473        1.7799276026       -2.1603893843
 C        -9.7579932465        0.5940963877       -2.9032262605
 C        -9.8438543762       -0.6103509749       -2.0990925294
 O        -9.1297110529       -0.9212828722       -1.1352690888
 C       -10.7837657220       -1.6119650236       -2.6784861268
 C       -10.1209902675       -2.8190576242       -3.3924741402
 O       -10.7140121795       -3.8990220808       -3.3360242724
 C        -8.7033904851       -2.4859315763       -4.0165199740
 C        -7.8541536233       -3.8931594580       -4.2738669305
 C        -6.8351503028       -3.9415151451       -5.4984993704
 O        -5.8770453925       -3.1745892093       -5.5080442267
 C        -7.2455536466       -4.8344945192       -6.8666099428
 C        -8.7037211017       -5.5845948939       -6.7184608399
 O        -8.7842291152       -6.7918859839       -6.8864704035
 C       -10.0116703697       -4.7984166891       -6.4921068981
 C        -7.1903245717       -3.9807514918       -8.2259789815
 C        -6.1896965809       -5.9325772912       -7.0341505700
 C       -11.8506056053       -2.0084294590       -1.5407467481
 C       -11.7527678452       -0.9696078322       -3.7636159523
 C        -6.5852112186        1.2070166356       -0.2839548832
 C        -8.4122815767        0.9973248315        1.5070319330
 C       -10.9309740505        8.4851283163       -1.5701854433
 C        -8.5656754201        7.7928524927       -2.1460925917
 C       -11.5365464508       11.3067237785        4.2009938099
 C        -9.1215243219       10.8432026610        5.1953691759
 C       -12.8238017291        4.7340429192        7.2075818373
 C       -12.0885260911        3.4808902470        4.9665439683
 H       -15.4305973606        4.2305661872        5.7941094450
 H       -16.1133670423        5.8817200046        5.1638328070
 H       -15.3688652957        5.7158631291        6.8139023277
 H       -10.2901575294        6.3317466682        7.1332596006
 H       -11.7463912396        7.3002686934        6.9578046854
 H        -9.4690534967        7.7953921629        4.9912119607
 H        -9.2296555519        8.1227878984        6.5009415253
 H        -8.2459400556       10.5933676992        2.4102846232
 H        -9.4258788584       11.7949213796        2.2452854579
 H        -9.2375087347       11.3200961225        0.1295912173
 H       -10.5733451434       10.2000613037        0.4510389752
 H        -7.8235630769        6.5756493504        1.0165821400
 H        -7.6647977120        5.8455839655       -0.4850018925
 H        -9.3155928490        4.1115546016        0.2218092514
 H        -9.0496947833        4.6306268800        2.0155979779
 H        -7.8884724170        1.6763564204       -2.2774691721
 H        -9.4033498259        2.7240670728       -2.5810287737
 H        -9.2328611563        0.3679586728       -3.7967004765
 H       -10.8095153483        0.9121912767       -3.1181118305
 H        -8.1148982167       -1.8324889540       -3.4475236522
 H        -8.7170927160       -2.0827586360       -5.0865020828
 H        -8.7020729933       -4.5763422435       -4.2667804164
 H        -7.2170069635       -4.1090986034       -3.3347446546
 H       -10.9056586918       -5.2606025691       -6.8701616317
 H       -10.0641897761       -3.8180395523       -6.9677600524
 H       -10.2444917135       -4.6957431699       -5.3750938614
 H        -8.1598749482       -3.7363666556       -8.7431642981
 H        -6.7396197157       -4.6967778434       -8.8386677603
 H        -6.5351575872       -3.1511239794       -8.0174641102
 H        -6.2562088264       -6.6816651153       -6.1526061217
 H        -5.1725948027       -5.5977876351       -6.9558318388
 H        -6.2667081987       -6.5727069392       -7.9425188766
 H       -11.1245330650       -2.0563320564       -0.5997027752
 H       -12.4525453077       -2.7825549558       -1.8928669242
 H       -12.5525719974       -1.2240368702       -1.3412388322
 H       -12.2947732227       -1.8216465830       -4.1082838707
 H       -11.2290508521       -0.5977483277       -4.7657453148
 H       -12.3104293712       -0.1455983323       -3.5717304982
 H        -6.0222275596        0.9078084312        0.6283869497
 H        -6.2719255371        1.8437109639       -1.1240249277
 H        -7.0219272311        0.3348403476       -0.7957620404
 H        -7.5568648739        0.5250091231        1.9673321303
 H        -8.8587882097        0.1159821742        1.3564671501
 H        -8.8020744308        1.5840120567        2.3515270033
 H       -11.2605753955        7.7727627798       -2.2793971262
 H       -10.8933653798        9.3418544013       -2.1860659284
 H       -11.6258380405        8.5851733710       -0.7212869215
 H        -8.4263408324        8.8195885802       -2.5424195787
 H        -8.8343279402        6.9431088233       -2.7928727758
 H        -7.5133774960        7.4155476020       -1.9620926476
 H       -11.9014055004       11.9233031202        5.1592377045
 H       -12.4046009219       10.7374514317        3.9249235457
 H       -11.3392706777       12.1613265732        3.4095666398
 H        -9.2269637332       11.2968838975        6.1411293081
 H        -8.5844951018       11.6613156266        4.6248908392
 H        -8.4354470572       10.0773546894        5.3983702486
 H       -12.0985129769        4.2180406395        7.7868771288
 H       -13.7007261946        4.0490795994        7.4020932306
 H       -12.9972700951        5.6986815524        7.5194570942
 H       -12.9987871585        2.8288011820        5.0616554571
 H       -11.1959985554        3.0300550870        5.5138644172
 H       -11.8218150211        3.7254552917        3.9485941323
 Na      -11.9246994998        6.6622382863        2.5658038250
