117

 C       -13.1569573625        6.6440999294       -5.6121673431
 C       -12.3043054223        6.6150486402       -6.9478886357
 O       -12.2907565955        7.5318471965       -7.7450721701
 C       -11.3976805857        5.3492402391       -7.1604383366
 C       -10.4649369975        5.1809609002       -5.9187781956
 O       -11.0061203132        4.6926009507       -4.9450730315
 C        -8.9623190559        5.6466933045       -5.9217998972
 C        -8.1874706605        4.5287907302       -5.2240832430
 C        -8.0484254851        4.9121852266       -3.7342072170
 O        -8.5101132559        5.8942182794       -3.2447159192
 C        -7.1533801135        3.9855213782       -2.8852513018
 C        -6.3695507031        4.8443452298       -1.8617207144
 O        -5.1644897324        4.8203036036       -1.6929597906
 C        -7.2047463630        5.7167100031       -0.8916557200
 C        -6.4362929170        5.9277432244        0.4146895789
 C        -6.4793482008        4.8096331925        1.4794470537
 O        -6.9773603121        3.7274493903        1.2730999480
 C        -5.8016102482        5.0996144400        2.9466268584
 C        -6.5615516032        6.2431063055        3.6661879037
 O        -6.7235795174        7.2998754292        3.0721650471
 C        -7.1092396472        6.0217985039        5.1204034910
 C        -8.6273672930        6.1319849950        5.2245280911
 C        -9.3575546710        5.0179627545        4.3907886650
 O        -8.8688557848        3.9268691967        4.2797328772
 C       -10.6497351015        5.5231748454        3.5877044963
 C       -11.4665284970        4.3003007172        3.2230493949
 O       -10.9202359365        3.4682773565        2.5063105595
 C       -12.9118262683        3.9449841708        3.6347110916
 C       -13.4071714611        2.6291184996        2.9478373157
 C       -14.0064383851        2.9244667206        1.5432722950
 O       -14.0119706467        4.0417045832        1.1602303206
 C       -14.5181766261        1.6502218297        0.6885152688
 C       -13.3535060815        0.5783194737        0.7420129686
 O       -13.1666032122        0.0384527117        1.8481286034
 C       -12.5075712167        0.2874868072       -0.4875137197
 C       -11.3275746420       -0.6475560691       -0.1157909217
 C       -10.1595462341        0.0747284336        0.4763330720
 O       -10.1870108814        1.2565664455        0.6944501062
 C        -8.8467067968       -0.6827554368        1.0576823583
 C        -9.1469219812       -0.3992118329        2.6266239866
 O        -8.6987908512        0.5538251840        3.2716304123
 C       -10.1037679150       -1.3764435599        3.2800028451
 C        -8.7819575440       -2.2121759140        0.7015295619
 C        -7.5638985030       -0.0451701888        0.6702196517
 C       -15.8063272741        0.9771533364        1.3442306369
 C       -14.8912865501        2.1643522336       -0.6963397441
 C       -11.6110488561        6.3677897388        4.5369681684
 C       -10.2741150667        6.4001232085        2.3822316785
 C        -5.5721545299        3.7962166610        3.8246214433
 C        -4.3530989227        5.5764557901        2.6751261309
 C        -8.0239040343        2.9738635861       -2.1221930501
 C        -6.0484962076        3.1601233240       -3.6593526731
 C       -12.3180866323        4.1281896644       -7.0637617035
 C       -10.7232939143        5.4718006701       -8.4757280484
 H       -13.3864757498        5.6173626534       -5.4670126158
 H       -14.0619245031        7.2456718256       -5.8641698046
 H       -12.6502433869        7.0561607431       -4.6778391188
 H        -8.9204333556        6.5907124679       -5.4066413520
 H        -8.6511997127        5.8892839777       -6.9115114585
 H        -7.1847079908        4.3558749538       -5.6284283064
 H        -8.7203568259        3.6027380856       -5.4766063606
 H        -8.2935118891        5.3779420135       -0.7546028414
 H        -7.4037751409        6.7130344635       -1.3288539842
 H        -6.7855438527        6.8466111173        0.8845874343
 H        -5.4084227265        6.0340171760        0.0615499231
 H        -6.5963132916        6.7376264975        5.7701839017
 H        -6.7478623682        5.0536161604        5.5616530018
 H        -8.9118473997        7.1423873737        5.0331742741
 H        -9.0660347395        5.9494117545        6.2723847954
 H       -13.5977468048        4.7128323151        3.4455535273
 H       -12.9870736110        3.8200337965        4.6837493765
 H       -14.1713037808        2.0946994229        3.5349847117
 H       -12.6075250370        1.8727719595        2.7578687960
 H       -12.1736287194        1.1942634591       -0.9965644638
 H       -13.2639737522       -0.2083906137       -1.1252549390
 H       -10.9438553847       -1.2466556737       -0.8876507326
 H       -11.6552023902       -1.3172810116        0.6457490399
 H        -9.9039580952       -1.1444035093        4.3142172788
 H       -10.0538178104       -2.4287908334        3.0779943460
 H       -11.1277079794       -1.1219194477        2.9820084821
 H        -9.0539977120       -2.3006245550       -0.3465146824
 H        -9.5799005290       -2.8836702694        1.2011910589
 H        -7.8586868555       -2.6719922564        0.9347508911
 H        -7.6544245253        1.0332547935        0.7618234014
 H        -7.3362294557       -0.3147186687       -0.3368898559
 H        -6.6341576965       -0.3600799846        1.3339856672
 H       -15.6006498693        0.6340359927        2.3494787119
 H       -16.0658908619        0.0872757843        0.8590641098
 H       -16.6852509027        1.5816011929        1.2509412064
 H       -15.5424628748        3.1081101757       -0.6839452389
 H       -15.4114522850        1.4110118917       -1.2627067399
 H       -14.0199142623        2.2559637792       -1.4304399492
 H       -11.2533522871        7.3482327188        4.7986703753
 H       -11.7634019227        5.8587495543        5.4717785202
 H       -12.5452586951        6.5562996224        4.0710248782
 H       -10.6834225367        5.9351358591        1.4909887121
 H        -9.2384902155        6.3998305923        2.3427949804
 H       -10.6134286853        7.4225636584        2.3283275274
 H        -5.1781096612        4.2062222283        4.6921912943
 H        -4.9659019309        3.0158402649        3.3282991994
 H        -6.4802938878        3.2125928755        4.0585563743
 H        -3.6862194769        4.8347410979        2.1902005617
 H        -3.9799092971        5.8836984982        3.6180867908
 H        -4.2080165546        6.3526204521        1.9951528001
 H        -8.9635983202        2.7449949117       -2.6347632924
 H        -8.2712014062        3.3271790829       -1.1436752138
 H        -7.5048663701        2.0125780444       -2.0241305417
 H        -6.6013258878        2.3248236675       -4.1861131048
 H        -5.2386513569        2.7982453531       -2.9841070801
 H        -5.5022995224        3.8370225711       -4.3776290884
 H       -12.0115064557        3.5882946604       -6.1403574658
 H       -12.3828660957        3.5187882319       -7.9627068911
 H       -13.3827386658        4.5051746362       -6.9959658275
 H       -10.1950511270        6.4125710270       -8.5771630142
 H       -11.5599190399        5.4992371633       -9.1546563061
 H       -10.0969836119        4.6295270725       -8.6418017645
 Na       -8.8134167535        2.6414882278        2.4563795583
