117

 C       -15.3477767203        5.6601902017        4.2846176803
 C       -13.7878955124        5.9429802025        4.0869419515
 O       -13.4026792377        6.5731907051        3.0955350109
 C       -12.8403770873        5.1543397555        5.1106062676
 C       -11.4557597397        6.0365139292        5.1313208163
 O       -10.5416644859        5.7489777563        4.4049934364
 C       -11.2288695421        7.0113554550        6.2106394966
 C       -10.1340905180        8.1122196925        5.9846389358
 C       -10.8392613176        9.4471153076        5.6024710181
 O       -11.9244138021        9.8058564362        6.0351371140
 C       -10.0045696711       10.5282896467        4.7300421854
 C       -10.1382258896       10.0724527282        3.2027880631
 O       -10.9218843448        9.1291132529        3.0187235098
 C        -9.3931670019       10.7948658051        2.0079472598
 C        -9.7109468278       10.2424300399        0.5621167600
 C        -8.6074850054        9.2215080525        0.0734101521
 O        -7.6610391637        9.1259970431        0.8130058816
 C        -8.9695492076        8.1867982759       -1.0779763361
 C        -9.5440402369        6.9728502735       -0.1290155519
 O       -10.6758146494        7.2168617865        0.3239241354
 C        -8.4843059484        5.9668778869        0.5051310172
 C        -7.9626843665        4.6858184087       -0.4141109275
 C        -8.0792883943        3.5231907305        0.5531605125
 O        -7.9705239973        3.7421217417        1.7625148648
 C        -8.1986840938        1.9332277362        0.0002473662
 C        -9.5283141777        1.8404781536       -0.8488503152
 O       -10.6357043633        1.8039133954       -0.2640133188
 C        -9.4396662119        1.9224787427       -2.2815000552
 C       -10.1762385617        0.8250447670       -3.1075226892
 C        -9.6763634905       -0.5978691176       -2.7190106892
 O        -8.4776686776       -0.5698879139       -2.4871492782
 C       -10.4907551740       -1.8207480696       -2.4228079211
 C        -9.8563919184       -3.2414960254       -2.6923078225
 O       -10.5565415359       -4.2277762264       -2.4979589539
 C        -8.4972222927       -3.1787068761       -3.4807911307
 C        -7.8299793412       -4.6338050925       -3.7962583249
 C        -7.0550312993       -4.5843256668       -5.1843080699
 O        -5.8915099919       -4.1941536472       -5.2574211975
 C        -7.6953857182       -5.2775095554       -6.4801182850
 C        -9.1955023456       -5.6446269227       -6.1377756665
 O        -9.4783935676       -6.3479375664       -5.1504026803
 C       -10.3946524272       -5.0089295826       -6.8145804789
 C        -7.4480219551       -4.3944081209       -7.7218520505
 C        -6.7628051405       -6.5690308823       -6.6882846534
 C       -10.8850178272       -1.8002789624       -0.9505264439
 C       -11.8422912306       -1.8649922497       -3.1093845584
 C        -6.8140632140        1.5679603054       -0.8785887914
 C        -8.2593994278        1.0422138852        1.1856580632
 C       -10.1672931761        8.5955627987       -1.9487410404
 C        -7.8906814866        7.6866941449       -1.9309757088
 C       -10.5294041393       11.9629968343        4.8722800222
 C        -8.5359492709       10.5942467363        5.2171245460
 C       -13.3676304315        5.0852023478        6.5174160290
 C       -12.6519491395        3.7488547864        4.4174151822
 H       -15.4878981791        4.6032670655        4.1495865906
 H       -15.8846110735        6.2995812817        3.5030162423
 H       -15.6735232691        6.0306135233        5.1723715131
 H       -10.9622721857        6.3331793368        7.0324748008
 H       -12.1239422171        7.5774483198        6.5243628734
 H        -9.2439280524        8.0039647494        5.3221300849
 H        -9.6896098143        8.2178245941        7.0059819927
 H        -8.3054012790       10.6603198989        2.0411949921
 H        -9.5179888924       11.8571219289        1.9895863414
 H        -9.9230825896       11.0984917049       -0.0736541357
 H       -10.7866222130        9.8108056360        0.4732505584
 H        -9.0250347847        5.7594817522        1.5124625743
 H        -7.6172843713        6.6817487739        0.6719285302
 H        -6.9256108483        4.8580924223       -0.7683333024
 H        -8.6771539038        4.4921758126       -1.2945762756
 H        -8.4161886227        1.8788658206       -2.5720389542
 H        -9.6558935446        2.9513257481       -2.6096357069
 H       -10.0166936119        0.9341624511       -4.1747514019
 H       -11.2578897081        0.9054195619       -2.9693650534
 H        -7.7442128640       -2.7104334113       -2.9602353152
 H        -8.5748236241       -2.8911924287       -4.4907612634
 H        -8.4408104210       -5.4716460297       -3.8320094465
 H        -7.0134426454       -4.8517790934       -3.0965994429
 H       -10.3463025566       -4.9528538425       -7.8500882724
 H       -10.6235754127       -4.0884996145       -6.3368480401
 H       -11.3238314706       -5.5909916592       -6.6588123371
 H        -8.1648499536       -3.5663277675       -7.8485608782
 H        -7.1249114732       -5.0485523860       -8.4762415959
 H        -6.4679237610       -3.9380833620       -7.5131351669
 H        -7.0250822928       -7.3405534117       -5.9383593669
 H        -5.7414630990       -6.4688055840       -6.5945206625
 H        -7.0085067000       -7.1464623951       -7.5610575790
 H        -9.9208280877       -1.8147352407       -0.3459090539
 H       -11.3368674839       -2.7453848104       -0.7469650286
 H       -11.4203416255       -0.8875718869       -0.8452488007
 H       -12.3532306172       -2.8061089080       -2.8561947674
 H       -11.6960213805       -1.9502110800       -4.2734415284
 H       -12.5730562176       -1.1420250115       -2.8609535663
 H        -6.1040915075        1.7252350833       -0.0622568164
 H        -6.6261358101        2.3519056387       -1.6282827557
 H        -6.9213032554        0.5932815145       -1.2756553234
 H        -7.3640334556        0.6145991895        1.6292559876
 H        -8.9662679173        0.3154906259        0.9807750054
 H        -8.8212751101        1.4193189042        2.0795386522
 H       -10.3402343745        8.0041705200       -2.8531199458
 H        -9.9088915865        9.6224822253       -2.1754991349
 H       -11.1450865523        8.6746844988       -1.3994670360
 H        -7.5510559539        8.4067371125       -2.6453762307
 H        -8.2376329006        7.0277399315       -2.6577605026
 H        -7.0171618270        7.3168926062       -1.4561661475
 H       -10.1456728381       12.4484003972        5.6875443837
 H       -11.5921511935       11.9177563758        4.9340189198
 H       -10.3373762320       12.5711825337        4.0603695611
 H        -8.4263803532       10.9182801303        6.2331662967
 H        -7.8797660531       11.3250422301        4.6686548305
 H        -7.9065412272        9.7462614047        5.1629746773
 H       -12.5478326815        4.7854222104        7.1956477276
 H       -14.1574942751        4.2480232632        6.5130702448
 H       -13.8767920158        5.8468966595        7.0368086977
 H       -13.6838253998        3.4001164838        4.3235976949
 H       -12.1535378855        3.1301957713        5.0342207453
 H       -12.2081297021        3.7833942690        3.3609949423
 Na      -11.2843669475        6.6834061715        2.5136847061
