117

 C       -15.4958931057        6.8353602249        3.7704685520
 C       -14.0421937581        6.4956972917        3.4089544591
 O       -13.7892391209        6.5410794501        2.2057615384
 C       -13.1421452574        5.8116784891        4.5295300276
 C       -11.7815947614        6.7268329598        4.8174198685
 O       -10.8715970541        6.6240480677        3.9870947785
 C       -11.5616091029        7.3440092776        6.1535668701
 C       -10.2283224046        8.2533890809        6.3114849742
 C       -10.5608846772        9.6423820251        5.6065791577
 O       -11.6537035032       10.2050150316        5.6422131862
 C        -9.4270498493       10.2713314307        4.7008949611
 C        -9.9030163632       10.0947928336        3.2216061232
 O       -10.3056807330        8.9834878532        2.9469426435
 C        -9.7869844595       11.2681497308        2.2461899494
 C        -9.6649363197       10.6223574228        0.8402006778
 C        -8.4428195582        9.5793268580        0.6910636833
 O        -7.7251852094        9.4342439473        1.6575072955
 C        -8.1935476983        8.5707184771       -0.6897420998
 C        -9.1993985705        7.3767257437       -0.1538030473
 O       -10.3673481266        7.7255140575       -0.1737340878
 C        -8.6958503333        6.0368307296        0.5056184242
 C        -8.3712032857        4.9385625711       -0.4620639631
 C        -8.5943214744        3.4419645187        0.2338279885
 O        -9.0946453829        3.4283933004        1.3454090239
 C        -8.3117106005        2.1927550201       -0.6296453370
 C        -9.8634733510        1.7779937658       -1.1998259603
 O       -10.6764754684        1.5007685986       -0.3700428653
 C       -10.0953801112        1.5183181415       -2.6947803531
 C       -10.6695069425        0.1582604056       -3.0415380206
 C        -9.6970642845       -0.9564124674       -2.5727473768
 O        -8.5345427016       -0.8079268427       -2.9086903749
 C       -10.3200069775       -2.2463584647       -1.8051752108
 C        -9.0419148730       -3.2158526421       -1.8313579163
 O        -8.3707768701       -3.4706275015       -0.8249158280
 C        -8.6564697712       -3.7890678930       -3.2421620719
 C        -7.9537292109       -5.1778779737       -3.1608378150
 C        -7.4071827633       -5.5265480171       -4.5791672753
 O        -6.2578293432       -5.4560792128       -4.7303113887
 C        -8.2081158902       -6.0521539569       -6.0385197262
 C        -9.7073974995       -5.9459416437       -6.0171435071
 O       -10.3402097908       -5.6264863810       -5.0006589741
 C       -10.4489264939       -6.2662646044       -7.3385997864
 C        -7.5476111074       -5.4177093765       -7.3203145608
 C        -8.1075737971       -7.5737096447       -6.0827358745
 C       -10.6165652907       -1.8740435945       -0.2852955830
 C       -11.6365611968       -2.8304119366       -2.4006974098
 C        -7.2533973171        2.4594608377       -1.7593031818
 C        -7.8901054227        0.9547560401        0.0829278981
 C        -8.7228705135        9.0734495871       -2.0134142270
 C        -6.7117158260        8.1964702811       -0.6698753257
 C        -9.3106538439       11.8372128520        4.9600677514
 C        -8.0932411317        9.5572313910        4.7964442597
 C       -13.8533561771        5.5830553783        5.8461187016
 C       -12.4312050807        4.5808572900        3.8672905123
 H       -16.0027987192        7.4794379950        3.0960282846
 H       -15.5126564907        7.3135812783        4.7170575027
 H       -15.8891452751        5.7675965448        3.7054253385
 H       -11.3754626306        6.5924342516        6.9527671733
 H       -12.4203821362        7.8908036936        6.5668610420
 H        -9.3667794434        7.8406045677        5.7814491825
 H       -10.1990420298        8.3947415866        7.3897406639
 H        -8.9055047231       11.8914181394        2.4654654984
 H       -10.7733789645       11.8488685389        2.2505562740
 H        -9.7602111587       11.3685790682       -0.0552301474
 H       -10.6433793429       10.1125441703        0.6792445478
 H        -9.6841708293        5.8447402759        1.0905371537
 H        -7.8834772259        6.2659182109        1.2136352895
 H        -7.4093578613        5.0183660574       -0.8588473582
 H        -9.1810619751        4.8743433053       -1.3853271885
 H        -9.1196940513        1.5611088271       -3.2737521842
 H       -10.7576184718        2.3291200687       -3.0360945105
 H       -10.5697975819        0.1297901661       -4.1497952466
 H       -11.6398968772        0.0491562989       -2.8324938366
 H        -8.0649173251       -3.0296205375       -3.6795152732
 H        -9.4922242224       -3.8192958790       -3.8681232925
 H        -8.6875380181       -5.9145634990       -2.7755644166
 H        -7.0851140158       -5.1058863395       -2.5750797634
 H       -11.5241365951       -6.5551643509       -7.3784733953
 H        -9.9625058499       -7.0930127744       -7.8250097437
 H       -10.4471889004       -5.3360101365       -7.8934642409
 H        -7.7100727363       -4.3815166656       -7.4260039994
 H        -8.1673208392       -5.7729921190       -8.1550833882
 H        -6.5009825354       -5.6138857975       -7.3286122675
 H        -8.6075979614       -8.1486516057       -5.3166485421
 H        -7.0449687977       -7.9457862889       -5.9963102088
 H        -8.3406833827       -8.0127475945       -7.0803329406
 H        -9.7536201363       -1.0577086733       -0.1489982856
 H       -10.5379214764       -2.7872540120        0.2624882222
 H       -11.5504316309       -1.4341402334       -0.1610451534
 H       -11.9157799993       -3.7356052460       -1.8764742522
 H       -11.2183359249       -3.3176039153       -3.3421088557
 H       -12.4278613294       -2.2382973733       -2.7952778932
 H        -6.4172946392        2.6326515047       -1.0574915984
 H        -7.5503534912        3.3024313971       -2.4031090231
 H        -6.9934561954        1.5404073496       -2.3094215047
 H        -6.9024020911        0.5618908787        0.0337359405
 H        -8.4660661824        0.0594905819       -0.2911083319
 H        -8.2181892670        1.0182137462        1.0777556122
 H        -8.5188443468        8.3748300711       -2.8114402142
 H        -8.1120188461        9.9599562342       -2.2393255835
 H        -9.7560984743        9.3018646602       -1.8422163472
 H        -6.2187813691        8.6361449847       -1.4779236441
 H        -6.6417942867        7.0480852123       -0.6198364861
 H        -6.1987525261        8.5341717651        0.2768654490
 H        -9.0579027791       11.9950828770        6.0197690921
 H       -10.2352263398       12.2337553194        4.8003146241
 H        -8.5674689632       12.3148210282        4.3568430665
 H        -7.6836133979        9.3563780796        5.7923998115
 H        -7.3836249330       10.0402736112        4.2276385203
 H        -8.1658029252        8.5127833240        4.4040904370
 H       -13.1362542411        5.3477931288        6.6115966873
 H       -14.5547589470        4.7380720275        5.8314695554
 H       -14.4388942971        6.3876080194        6.2623713852
 H       -13.2185465474        3.9283485545        3.5677190144
 H       -11.8934600174        4.0609291227        4.6049249394
 H       -11.8628229845        4.7346409243        2.9644803695
 Na      -11.4993752222        6.8812442279        2.0029417640
