117

 C       -15.5551489317        6.9591309475        3.8119235606
 C       -14.1568513781        6.4800970094        3.3555745324
 O       -13.7422579984        6.7417798650        2.2426876043
 C       -13.2014983732        5.8577315474        4.5066450190
 C       -11.8578143794        6.7538174372        4.8344679925
 O       -10.9198813825        6.7629038094        4.0512100878
 C       -11.7831166808        7.3255777775        6.2323827725
 C       -10.3587740450        8.1099569007        6.2166339865
 C       -10.4388392955        9.5250486513        5.4693072283
 O       -11.4911178207       10.1220646268        5.5910973528
 C        -9.3478492164       10.1912690396        4.6341479858
 C        -9.9674050690       10.1045195920        3.1642771595
 O       -10.5223318180        9.0657666848        2.8182385807
 C        -9.7232363125       11.1917025222        2.1471631803
 C        -9.6582704332       10.6207313424        0.7218555165
 C        -8.3996729836        9.7217859898        0.7225650726
 O        -7.6688556438        9.6313049775        1.6306679822
 C        -8.1911089184        8.5870672841       -0.6184464607
 C        -9.1731467638        7.5221595978       -0.0909962413
 O       -10.3527900368        7.8133147449        0.1106024521
 C        -8.6545138627        6.1150290964        0.5059441343
 C        -8.2611809105        4.9894601077       -0.4601213898
 C        -8.6244747884        3.5098805086        0.0913781280
 O        -8.9753055213        3.5117477116        1.2707885210
 C        -8.3916695723        2.1873499477       -0.7301112933
 C        -9.7857462589        1.6399490093       -1.2828926706
 O       -10.6876741021        1.4214437967       -0.4877608270
 C       -10.0887338387        1.5090134144       -2.8394495584
 C       -10.8245781766        0.1261057013       -3.1092970894
 C        -9.8492853818       -1.1265639700       -2.5330598582
 O        -8.6937276384       -1.0162465384       -2.8406928949
 C       -10.2139937010       -2.3880791262       -1.7748604509
 C        -9.0041047055       -3.3256733001       -1.7898927217
 O        -8.1858686965       -3.3033059411       -0.9367062219
 C        -8.6966569765       -3.8830092111       -3.2224394505
 C        -8.1429424003       -5.3193738824       -3.2786330979
 C        -7.3787295383       -5.6224976901       -4.6338581133
 O        -6.1618830760       -5.4384608373       -4.7461003894
 C        -8.2336674029       -6.1609518485       -5.8776298480
 C        -9.7726570926       -5.8528338297       -5.8828768960
 O       -10.5841232621       -5.4767887908       -5.0166560282
 C       -10.4573647157       -6.2923690731       -7.2291549044
 C        -7.5113982579       -5.5787410396       -6.9994524094
 C        -8.1335689173       -7.7662029795       -5.9575912222
 C       -10.4926197826       -2.0147183135       -0.1748262512
 C       -11.5177228320       -2.9296564465       -2.3704378571
 C        -7.2658407796        2.5578646142       -1.8871665881
 C        -8.0066651520        0.8671635315        0.1361689222
 C        -8.5327839684        9.2549019376       -1.9950478815
 C        -6.6298066183        8.0835940443       -0.5304600688
 C        -9.1950030458       11.8065525462        4.9647834155
 C        -7.9829918977        9.5711518062        4.8101042713
 C       -13.8997839746        5.4751467100        5.6826241234
 C       -12.5257165249        4.5998625843        3.9532609147
 H       -16.1807666113        7.4830248024        3.0977484330
 H       -15.2782728166        7.7331476346        4.6211171431
 H       -16.0047465789        6.1070251702        4.1013191748
 H       -11.6945474811        6.6956761026        7.1187240269
 H       -12.6546628385        7.9414073014        6.4776904312
 H        -9.6859238728        7.4533340387        5.7173845905
 H       -10.1612394067        8.3662969730        7.2734830767
 H        -8.8190331459       11.7349584354        2.3350098319
 H       -10.5861646316       11.7960247219        2.0290933620
 H        -9.5418765988       11.5087334221        0.0762299941
 H       -10.5759401301       10.2430334645        0.3175935699
 H        -9.4087420009        5.9906563001        1.2061385902
 H        -7.7093594350        6.2526616049        1.0237664485
 H        -7.1977986556        5.0200768365       -0.5255163329
 H        -8.7282572339        5.1361220411       -1.4809459695
 H        -9.2854069754        1.6871630365       -3.5259762415
 H       -10.8858862980        2.2411346788       -2.9472392178
 H       -11.0529397014        0.0744698221       -4.1533361742
 H       -11.7199826717        0.1953076042       -2.5001147712
 H        -7.9596724716       -3.1551565456       -3.6529223244
 H        -9.4967707797       -3.6891277266       -3.8832182555
 H        -8.8912312766       -6.0861100825       -3.1313447869
 H        -7.3441008413       -5.3830971872       -2.5197670273
 H       -11.5031603546       -6.1311037590       -7.3399611281
 H       -10.2779161581       -7.2889238190       -7.4193068240
 H       -10.1123809871       -5.5691803585       -7.9713220278
 H        -7.4002192379       -4.5145441279       -6.8792994094
 H        -8.1931601761       -5.6055664979       -7.8785168374
 H        -6.5083072776       -5.9859463148       -7.0734289713
 H        -8.4932402762       -8.3776792912       -5.1018511317
 H        -7.1041996294       -8.0359780945       -5.9762836481
 H        -8.5414746915       -8.2141868990       -6.8440051731
 H        -9.6687793391       -1.4528107363        0.0974228200
 H       -10.6569738838       -2.9959410385        0.2714681319
 H       -11.3962487007       -1.4475293765       -0.0501158782
 H       -11.8364475684       -3.8629308290       -1.9549023170
 H       -11.3965437938       -3.1792958994       -3.4931609834
 H       -12.2209584101       -2.1812390263       -2.4322997429
 H        -6.5448394593        2.9270281924       -1.2419255874
 H        -7.6669287137        3.1862787994       -2.6257439530
 H        -6.8262121783        1.7383728472       -2.3053396037
 H        -6.9335959093        0.8969722966        0.3236132727
 H        -8.0792130549       -0.1012899996       -0.3029678679
 H        -8.5457959602        0.8604696163        1.1052321853
 H        -8.0476598425        8.5410610243       -2.6918501247
 H        -7.8843789929       10.0982099032       -2.0877004127
 H        -9.5746404300        9.4939790431       -2.1295203899
 H        -6.1768416860        8.6127521629       -1.3505762682
 H        -6.6145671923        7.0559884023       -0.6718726873
 H        -6.0979518362        8.2500414045        0.3991261935
 H        -9.1259392210       11.9183432464        5.9535570687
 H       -10.1289050848       12.3251142949        4.6023418233
 H        -8.3245916327       12.1888602454        4.5875813950
 H        -7.8164659324        9.3768206718        5.8770179626
 H        -7.1531605512       10.1775515889        4.4043687378
 H        -7.8599441857        8.5772177506        4.3929210394
 H       -13.2656276412        5.0971721860        6.5118441542
 H       -14.6883934913        4.6471875096        5.3749128864
 H       -14.5369875794        6.1933802617        6.1820339222
 H       -13.2990011787        3.7629472698        3.8894284618
 H       -11.7277683669        4.2918499713        4.5614921239
 H       -12.1871447474        4.7463475343        2.8340824034
 Na      -11.4211270361        7.0816632138        1.9349302671
