117

 C       -15.5177378434        7.0627150432        3.8625595031
 C       -14.0539871225        6.6613194112        3.4485097304
 O       -13.6340745649        6.9340729405        2.3301974233
 C       -13.2608833852        5.7932952986        4.4663770383
 C       -12.0239443445        6.7897842087        4.8354359894
 O       -11.0573189321        6.8664712953        4.1203024622
 C       -11.7647977080        7.4832252094        6.1557661366
 C       -10.3606463472        8.1130812523        6.2322674563
 C       -10.5166080845        9.5274048651        5.4659070290
 O       -11.5521409917       10.1109786569        5.6014815428
 C        -9.2643274446       10.0970485642        4.5777230122
 C        -9.8296870074       10.0009029573        2.9835111108
 O       -10.7290529876        9.2153782580        2.7826380237
 C        -9.6907676413       11.2202947639        2.0025646264
 C        -9.4904447043       10.6296938104        0.5034842618
 C        -8.3237479131        9.7626845659        0.6226625986
 O        -7.5131211891        9.8092206550        1.5798820406
 C        -8.1416316043        8.5919667048       -0.4425508265
 C        -9.0774393075        7.5453056815        0.0368706053
 O       -10.2722174239        7.8510927154        0.2101593931
 C        -8.6083481583        6.1417369936        0.4951320652
 C        -8.1471394413        5.0169066014       -0.5969000039
 C        -8.5908713946        3.5891198201        0.0805616493
 O        -8.9247569453        3.4370756129        1.2131368452
 C        -8.4470414342        2.3070469674       -0.7941704764
 C        -9.8461362030        1.7448767511       -1.4314513964
 O       -10.6297613730        1.3535134524       -0.6213015607
 C       -10.1524885974        1.3581502072       -2.9262907970
 C       -10.8716683267       -0.0524571083       -2.8908363632
 C        -9.8682576634       -1.0733842529       -2.4890969278
 O        -8.6943384479       -1.0615112812       -2.8646783780
 C       -10.2705839577       -2.3757786199       -1.7831980761
 C        -8.8630609792       -3.2649829961       -1.9257729619
 O        -8.0576992308       -3.3097818953       -1.0221342871
 C        -8.5725400144       -3.9814613662       -3.2759438509
 C        -8.2617647580       -5.4788537540       -3.2134646628
 C        -7.4875249350       -5.7875602088       -4.4976656047
 O        -6.3017469610       -5.4753824768       -4.7102486519
 C        -8.2952457575       -6.2713635761       -5.7284396304
 C        -9.9004506490       -5.9110812458       -5.8037644459
 O       -10.5045787833       -5.3189669901       -5.0001410658
 C       -10.5878205533       -6.2411157404       -7.2218168189
 C        -7.4832933109       -5.6799104854       -6.9697724731
 C        -8.0419771582       -7.8298066794       -5.6456905607
 C       -10.4631145339       -2.1495457418       -0.1507388593
 C       -11.5826602150       -3.1091984816       -2.3032514807
 C        -7.4546698388        2.4643047230       -1.9429804359
 C        -7.9675704979        1.1779859837        0.1119169444
 C        -8.3554546717        9.3339247293       -1.7865384267
 C        -6.6832393763        8.0870113483       -0.4164658532
 C        -9.2032786342       11.5588695099        5.0500409661
 C        -7.8518844371        9.5429658438        4.7486434022
 C       -14.1149775610        5.3546634095        5.7163113308
 C       -12.6672460074        4.4084755142        3.7692247291
 H       -15.9794091530        7.1659464982        2.8682940057
 H       -15.4932319378        8.0870790669        4.2079528903
 H       -16.0714608554        6.2570890674        4.3668727535
 H       -11.8643791815        6.9275427128        7.0815805603
 H       -12.4717281697        8.2971475161        6.3287311336
 H        -9.6535327178        7.4291173486        5.7748737671
 H       -10.2037261674        8.3829839259        7.2682986781
 H        -8.8247596556       11.7999465120        2.2446892722
 H       -10.5976416920       11.7110341454        1.9432626910
 H        -9.4040906898       11.3855133935       -0.1714077628
 H       -10.3083964474       10.0504183750        0.1006274277
 H        -9.3886577743        5.9319315775        1.1236095895
 H        -7.7049894830        6.2517101329        1.0935097212
 H        -7.0271360179        4.9802658301       -0.9020078798
 H        -8.6890183865        5.1123759605       -1.3916577663
 H        -9.2495671246        1.0506976733       -3.3407447741
 H       -10.6721659955        2.0501532614       -3.5746810028
 H       -11.2962308681       -0.0940715001       -3.8948019568
 H       -11.7190523887       -0.0613293805       -2.0446555851
 H        -7.8835777694       -3.4035507118       -3.9538837331
 H        -9.5471331882       -3.8472455344       -3.9282311239
 H        -9.1765832112       -6.1179968129       -3.2755377004
 H        -7.6577187248       -5.8390397436       -2.3149596714
 H       -11.4801119620       -5.7211549271       -7.3410534999
 H       -10.8124820874       -7.3216547251       -7.2363846266
 H       -10.0649449566       -5.8608583060       -8.0605704606
 H        -7.3382638327       -4.5546189963       -6.8368023870
 H        -8.0032187357       -5.7429579504       -7.9021535369
 H        -6.4544452145       -6.1076450932       -6.9223121533
 H        -8.4896310080       -8.3888182947       -4.8438545046
 H        -7.0003382139       -8.0741919045       -5.5648665432
 H        -8.4771487719       -8.3065542911       -6.5247715063
 H        -9.5099062574       -1.9368845828        0.1511053782
 H       -10.9582819201       -3.0475626220        0.1439533403
 H       -11.1552226639       -1.3093290839        0.0679062100
 H       -11.6906717534       -4.1399113141       -1.9792005109
 H       -11.6769871698       -3.1625626086       -3.3025111939
 H       -12.3991582526       -2.4100993680       -2.0144894467
 H        -6.5511847228        2.7974942548       -1.5861591138
 H        -7.9767928502        2.9469304484       -2.6815718655
 H        -7.2331894226        1.4930333878       -2.3358693450
 H        -7.1865559239        1.7167059687        0.7054505237
 H        -7.3578391596        0.3871232026       -0.2260295634
 H        -8.7457184452        0.8062891362        0.8330961837
 H        -7.9067802283        8.6180503459       -2.4401123477
 H        -7.7347305292       10.2104595395       -1.9060920772
 H        -9.4432769647        9.5301174823       -1.9164949950
 H        -6.2059591543        8.9557341271       -0.9324353831
 H        -6.7211699515        7.2489277865       -1.0452968484
 H        -6.3249599117        7.7559745071        0.5029609536
 H        -9.1175886415       11.4820936857        6.1613404834
 H       -10.0687076674       12.1669165753        4.7542239114
 H        -8.2171188864       11.9789478085        4.8220369869
 H        -7.6839294963        9.4132165889        5.8189516228
 H        -6.9573292111       10.0778808657        4.2741987577
 H        -7.7716405664        8.5265414381        4.3732860650
 H       -13.6124591187        4.7033342922        6.5061744339
 H       -15.0603082721        4.9316891312        5.4285030109
 H       -14.4693388448        6.1970506415        6.3948122160
 H       -13.4204648686        3.5666700658        3.8809433908
 H       -11.6777242464        4.1600370480        4.4043235395
 H       -12.4196071852        4.4542836112        2.7013376450
 Na      -11.4216910079        7.2783253209        1.8013621042
