117

 C       -15.7529170312        7.3834604996        4.1665366490
 C       -14.2356528767        7.2024094750        3.6603192733
 O       -13.8936424764        7.7128876694        2.5790125673
 C       -13.4198835470        5.9805860708        4.3910160172
 C       -11.9923792255        6.4856637230        4.7334747485
 O       -11.1138471403        6.4877491117        3.8935011334
 C       -11.7090949575        7.2405523103        6.0415678146
 C       -10.5573612435        8.2483674132        6.1881367343
 C       -10.9280836434        9.5265303504        5.2621002582
 O       -11.9827829445       10.0749006491        5.4099295731
 C        -9.6899191109       10.1460973281        4.3996663664
 C       -10.0567685549       10.4154990978        2.9947091901
 O       -10.9681457227        9.7867012399        2.4769705403
 C        -9.1998893166       11.3437537475        2.1145018078
 C        -8.8954054176       10.7349961610        0.6594507857
 C        -7.6027661757        9.8661566466        0.6758142583
 O        -6.6654963707       10.1769685935        1.4425282277
 C        -7.5014210691        8.6088467225       -0.3644008010
 C        -8.5942964938        7.6178981750       -0.1156153058
 O        -9.8134006001        7.8909644956       -0.0283922705
 C        -8.2702903633        6.2025450349        0.2924875482
 C        -8.6040645775        5.1666845784       -0.8609729008
 C        -8.8170789471        3.6914839245       -0.1265775398
 O        -9.3527212082        3.4773348700        0.9125163659
 C        -8.5705294722        2.4949017528       -1.1142289837
 C        -9.9850318991        1.9242437520       -1.1801696073
 O       -10.7378818225        1.9827706455       -0.2160496992
 C       -10.5687810961        1.3010096390       -2.4542142795
 C       -10.8663024225       -0.1867429085       -2.4998286651
 C        -9.7554660566       -1.1886541752       -2.4574165665
 O        -8.7015526361       -1.0506681027       -3.0720702449
 C       -10.0353250749       -2.5391268353       -1.5019575866
 C        -8.6001954674       -3.4002395568       -1.6137736079
 O        -7.8797647756       -3.6187594081       -0.6101589124
 C        -8.1229142901       -3.9901587833       -2.9610740710
 C        -8.3005585859       -5.5368153518       -3.0187598334
 C        -7.7097183897       -6.0995995458       -4.3249109191
 O        -6.5301463993       -6.1571555143       -4.4979269798
 C        -8.5371975479       -6.7444793508       -5.5418324776
 C        -9.9499782616       -6.0834234983       -5.8948878456
 O       -10.3537221564       -5.2052072286       -5.2078708149
 C       -10.7058095100       -6.7363220109       -7.1290403586
 C        -7.5900949410       -6.6681974776       -6.8262537147
 C        -8.8714514012       -8.1921498564       -5.2573064358
 C       -10.4159320382       -2.1633410061       -0.0517842711
 C       -11.1491437656       -3.4094740034       -2.0879981817
 C        -7.8147429961        2.8847498840       -2.5143943191
 C        -7.6472468300        1.4069011865       -0.5183279856
 C        -7.7750042792        9.2068273468       -1.8387845669
 C        -6.0574126409        7.9425492433       -0.2398267303
 C        -8.8396654483       11.1389782816        5.3521109064
 C        -8.6313446467        8.9618432323        4.1835522150
 C       -14.1334057548        5.6032667758        5.8164193727
 C       -13.3639615440        4.7741611913        3.5012483654
 H       -16.3149467845        6.7691563180        3.4529506074
 H       -16.0459527958        8.3693596098        4.0893687670
 H       -15.9477260685        6.8512873010        5.1839252055
 H       -11.5502358010        6.4730948012        6.8036196415
 H       -12.5419437900        7.7824688699        6.4968904917
 H        -9.6132835094        7.7328357087        5.9080569974
 H       -10.4398638915        8.5866043727        7.2217091665
 H        -8.1987449623       11.3925547689        2.5179434059
 H        -9.7379368712       12.2543124095        2.1601924939
 H        -8.6208026419       11.4186965212       -0.0776582447
 H        -9.7560709886       10.1419153248        0.2777086795
 H        -8.7174683329        5.8073792118        1.1329737434
 H        -7.2179217604        6.0769972154        0.3679652303
 H        -7.9038844243        5.1917327119       -1.7322705511
 H        -9.5984659680        5.2905248711       -1.2326660227
 H        -9.8293886887        1.4216621875       -3.1973603061
 H       -11.4168606631        1.9662226131       -2.6391434469
 H       -11.3587462941       -0.4352628453       -3.4657162450
 H       -11.5148375396       -0.2440489589       -1.5851388977
 H        -7.0593837786       -3.8107739959       -2.8625083590
 H        -8.3316905853       -3.4259314151       -3.9537782403
 H        -9.2694864332       -6.0239768546       -2.8329493671
 H        -7.7080399629       -6.0471873422       -2.2550679136
 H       -10.9442383486       -6.2626297313       -8.0564004707
 H       -11.6181897124       -7.1702722966       -6.6714811398
 H       -10.0918976555       -7.5520752637       -7.4021027743
 H        -8.1271585166       -6.0786921464       -7.6158490952
 H        -7.1875336446       -7.6099786347       -7.0525037420
 H        -6.6999085919       -6.0563512245       -6.5836431437
 H        -9.4446779578       -8.4855676748       -4.4132152486
 H        -7.9426363349       -8.7443636742       -5.1321120501
 H        -9.4969512879       -8.6501111374       -6.0082397779
 H        -9.4338391017       -2.4170926174        0.4358495750
 H       -11.1848191432       -2.7714929006        0.2018910185
 H       -10.7879851788       -1.1665162712        0.0581665544
 H       -11.3149443139       -4.3554399181       -1.5669587798
 H       -10.9378708906       -3.7084962389       -3.0498816475
 H       -12.1177216309       -2.8472045949       -2.0136945269
 H        -6.8523923455        3.3388072513       -2.3760530371
 H        -8.4759440348        3.2975822874       -3.2251656521
 H        -7.6626073162        1.8662274169       -2.8025353809
 H        -6.6597389038        1.7300217547       -0.7210414873
 H        -7.6776171513        0.4071155466       -1.0092964210
 H        -7.6813920995        1.2947293105        0.5496076562
 H        -7.9702705957        8.3985585675       -2.4958519321
 H        -7.0305984098        9.9953483978       -2.0500378424
 H        -8.7615644060        9.7122713650       -1.6451107756
 H        -6.0128173490        7.5444131982        0.7520014962
 H        -5.4761545146        8.8359011569       -0.0956025628
 H        -5.8221426986        7.3578251929       -1.0841686100
 H        -8.3258169981       10.5317691977        6.1505043278
 H        -9.3471483140       11.8944077748        5.7406021497
 H        -8.0864904463       11.4683063144        4.6618631084
 H        -8.1832741330        8.5593712019        5.0732182276
 H        -7.7551497194        9.2914471766        3.5827591047
 H        -9.0756155977        8.2412476478        3.5159626700
 H       -13.3978033044        5.0406705243        6.5238369605
 H       -15.0263699250        5.0184686564        5.7282703591
 H       -14.3831630520        6.5936565674        6.4255280634
 H       -14.2774719635        4.6500628877        2.8269007872
 H       -13.0892386175        3.8709757452        4.1508994947
 H       -12.4651462484        4.8520163401        2.8582131416
 Na      -11.4381476048        7.6686760355        1.5597759648
