117

 C       -13.2362694710        6.5866077420       -5.6446132984
 C       -12.4274643234        6.4521931936       -6.9589301371
 O       -12.3262941551        7.3628145393       -7.7590051279
 C       -11.5787385440        5.0715782266       -7.2210987659
 C       -10.4996512936        4.8853493806       -6.0205521856
 O       -10.8854250361        4.6059566570       -4.8869608603
 C        -9.0140471669        5.3137258217       -6.3529670475
 C        -7.9186694322        4.5887103064       -5.4928633564
 C        -7.9898367580        4.8990669586       -3.8718807187
 O        -8.5651553652        5.8828435753       -3.4473164522
 C        -7.2502005456        3.9331082900       -2.8827055551
 C        -6.3137829131        4.8142297861       -1.7760025827
 O        -5.1207209013        4.7702570963       -1.7671574031
 C        -7.1923653347        5.6214295048       -0.8124425154
 C        -6.5393759077        6.0503114082        0.4559831282
 C        -6.4513654475        5.0106398004        1.5675406561
 O        -7.1833095872        4.0224194989        1.4478211710
 C        -5.6026399718        5.2789557981        2.7951057078
 C        -6.5198580221        6.3238437559        3.6028478668
 O        -6.8084176248        7.3466266566        3.0517559437
 C        -7.0226358740        6.1470021670        5.0650965187
 C        -8.5730893503        6.3585893381        5.0894892836
 C        -9.2518409152        5.2675355963        4.2769829032
 O        -8.6141234685        4.2885745311        3.9017799841
 C       -10.7396858475        5.4645512593        3.7307915629
 C       -11.4951271198        4.1695217717        3.2372418841
 O       -11.0454135835        3.5071073324        2.3463248469
 C       -12.8357885234        3.8318917436        3.7496084620
 C       -13.4622736064        2.5934035976        3.1051374127
 C       -13.9126297075        2.7893755010        1.6590067907
 O       -14.0936087453        3.9377666028        1.3153255340
 C       -14.4788955943        1.5724215957        0.8039972356
 C       -13.3697592523        0.4975284250        0.8537639817
 O       -13.1768078343       -0.1165498652        1.8840310816
 C       -12.3717178096        0.2565588280       -0.3649356065
 C       -11.1872557630       -0.5618306845       -0.0374128513
 C       -10.1768319800        0.1233920442        0.7854724050
 O       -10.2807717928        1.3467453182        0.9328400063
 C        -8.9012959410       -0.6571725093        1.2743144167
 C        -9.0232430324       -0.4493379171        2.8057111114
 O        -8.4739316977        0.5092418152        3.3096898622
 C        -9.9151501177       -1.3029897417        3.6995183506
 C        -8.8451514716       -2.2400061471        0.8863349161
 C        -7.6427216116       -0.0153806129        0.6898969362
 C       -15.7910377150        1.2175162873        1.5555640397
 C       -14.7553046877        2.1663390857       -0.6134006577
 C       -11.4198657430        6.3675954733        4.8000565578
 C       -10.6069955012        6.2232032988        2.3940103482
 C        -5.4111864638        3.8880952034        3.4698756623
 C        -4.2878463122        6.1340409177        2.6580306681
 C        -8.2145134247        2.9907079234       -2.1082601057
 C        -6.2641823720        3.0677789805       -3.6788976590
 C       -12.5383573052        3.8766038609       -7.4383701567
 C       -10.8598779949        5.3005428144       -8.5978296935
 H       -13.7575126568        5.6859815850       -5.2598358789
 H       -13.7871615296        7.5323095208       -5.6595821604
 H       -12.3454070551        6.7913638439       -5.0987068185
 H        -8.9980427265        6.3992950759       -6.2490223402
 H        -8.8034538601        5.2206829845       -7.4384970613
 H        -6.9225795385        4.7549007239       -5.9954030629
 H        -8.1049972972        3.4899262061       -5.5860520806
 H        -8.1040469705        5.1570889003       -0.5641156590
 H        -7.5066016933        6.4804731085       -1.4457381321
 H        -7.1512678985        6.8262739795        0.9519514583
 H        -5.5205687749        6.4753063179        0.2287431966
 H        -6.4961076956        6.7655753595        5.7619311222
 H        -6.8396214555        5.1672200014        5.4317813519
 H        -8.8417248855        7.3016364142        4.5035741783
 H        -8.9015073842        6.5637322482        6.0792874082
 H       -13.5636390680        4.7218871925        3.7321621247
 H       -12.7707756609        3.6651456293        4.8772080263
 H       -14.3609587531        2.2523542764        3.6519188602
 H       -12.7536336141        1.7758388737        3.1082057486
 H       -12.0788626962        1.2784612341       -0.6176332777
 H       -12.7930165815       -0.2307902143       -1.2437302112
 H       -10.5786552304       -0.8454922583       -1.0064294018
 H       -11.5489532584       -1.5569540191        0.4332584147
 H        -9.5034771784       -1.2285382026        4.6808339680
 H        -9.8914271490       -2.3418696771        3.3377322212
 H       -10.9732054821       -1.1172982494        3.5396664459
 H        -8.2957960525       -2.3841704812       -0.0825709482
 H        -9.7276672193       -2.7366020927        0.7699275075
 H        -8.2807144361       -2.8291913462        1.6748579538
 H        -7.7233993911        1.0581160539        0.8484987208
 H        -7.4958623737       -0.3137120699       -0.3838598709
 H        -6.7329939773       -0.2522874113        1.1899938482
 H       -15.6391944815        0.6419306901        2.4163218741
 H       -16.4849184570        0.5683726675        0.9466632648
 H       -16.4153688214        2.0910037468        1.6102649020
 H       -15.7626425976        2.3914241432       -0.5954009836
 H       -14.6435978816        1.4775318030       -1.4930568007
 H       -14.1670458688        2.9351856830       -0.9560893072
 H       -11.3295360787        7.4420719977        4.7263467362
 H       -11.2178704054        5.9613713771        5.8118443444
 H       -12.5135530004        6.2661065572        4.7275262931
 H       -11.5236629561        6.0983440987        1.8089613409
 H        -9.6702593649        5.8071057641        1.9000785921
 H       -10.5426717352        7.3245677068        2.4031289524
 H        -4.9776531809        4.0869896940        4.5373374481
 H        -4.5876776401        3.3623946055        2.9983119172
 H        -6.2588573243        3.2541371132        3.3569413575
 H        -3.5426121925        5.6692416534        2.0123685329
 H        -3.9166885215        6.2905646100        3.6718528902
 H        -4.4279966217        7.0216958162        2.0478925762
 H        -8.4524712805        2.1467511251       -2.7908797943
 H        -9.2141553947        3.4751202059       -1.8643327817
 H        -7.7936340697        2.5203888156       -1.2076830528
 H        -6.8056758246        2.4853458611       -4.3426566865
 H        -5.7353132137        2.4474694207       -2.9778111774
 H        -5.4976285669        3.6614167121       -4.1058184881
 H       -12.6814298201        3.2320897903       -6.5491121554
 H       -12.0815446410        3.3459350416       -8.3044350501
 H       -13.4650968688        4.2178685059       -7.8349217456
 H       -10.2201064374        6.2108834966       -8.4770255169
 H       -11.6382744624        5.4378345744       -9.3958233490
 H       -10.1620619710        4.4321585997       -8.7257500539
 Na       -8.8579910373        2.5988397689        2.2290917472
