117

 C       -15.7319250494        7.9848309219        4.0267577051
 C       -14.3408354853        7.4533519807        3.5533771301
 O       -13.6775948449        8.0970237607        2.7217380525
 C       -13.7100874482        6.2938443810        4.2191935646
 C       -12.2365532397        6.7885786477        4.7580974332
 O       -11.3980097684        6.8490318960        3.8648651784
 C       -11.9516617646        7.0944968904        6.2574202023
 C       -10.6234655995        8.0346969162        6.0521895761
 C       -10.7921417536        9.1702540998        4.9329589982
 O       -11.8670761360        9.6023748078        4.5119535939
 C        -9.5069474282        9.7259248370        4.2117475646
 C        -9.9575838312       10.2793210123        2.6895479153
 O       -11.0271493690       10.1535275055        2.1619137253
 C        -8.9448500827       11.2788372123        2.1163802539
 C        -8.4125705622       11.1326932053        0.6598817175
 C        -7.1943015227       10.1431252203        0.8443218791
 O        -6.3672269935       10.0630873595        1.6933138541
 C        -7.2514493292        8.8248917076       -0.2300439864
 C        -8.3436876470        7.8289554912        0.1626526717
 O        -9.4165531676        8.3979771074        0.4541902764
 C        -8.0412789410        6.3051353939        0.2651198036
 C        -8.9302367824        5.5014812975       -0.6883482718
 C        -8.8339917596        3.9704046675       -0.2566557117
 O        -8.2995991481        3.6339841793        0.7840520924
 C        -9.0971771693        2.6224112987       -1.4037553130
 C       -10.4517635858        1.8115994026       -1.2983714003
 O       -11.1217996222        1.7542968440       -0.2438533014
 C       -10.8601916789        1.1389011798       -2.5785523377
 C       -10.9552837616       -0.4840511901       -2.4215140140
 C        -9.5897446685       -1.4330914991       -2.1950932580
 O        -8.5884396978       -1.0253771171       -2.6950595556
 C        -9.6831451269       -2.7651094190       -1.4914388451
 C        -8.3349797738       -3.6675985839       -1.5002211147
 O        -7.8719919702       -4.0813316706       -0.4744053667
 C        -7.9492406222       -4.1880923798       -2.8980188527
 C        -8.5917765771       -5.5767550921       -3.1631546268
 C        -7.8778465166       -6.2806822150       -4.3121515207
 O        -6.7047037538       -6.2542448369       -4.2845469078
 C        -8.7724601468       -7.2649644413       -5.2514373617
 C        -9.8164708071       -6.2621548500       -5.8286875612
 O       -10.0058054951       -5.1154994431       -5.3838494804
 C       -10.8134425590       -6.8033987980       -6.7860442740
 C        -7.8117784106       -7.8047927331       -6.3670328917
 C        -9.4874396040       -8.2590925458       -4.4607702626
 C       -10.1206025395       -2.4511560786       -0.0261596393
 C       -10.9083630995       -3.6478050590       -1.9491587917
 C        -8.6196958458        3.1846395938       -2.7803432754
 C        -7.9854533400        1.5864044837       -0.9975584563
 C        -7.7823091172        9.2056234836       -1.6859772476
 C        -5.8001005843        8.1972248240       -0.1630646354
 C        -8.8488328336       10.8567647512        4.8926279543
 C        -8.4042535719        8.6053694276        3.9718718107
 C       -14.4495390919        5.5873083903        5.3395318461
 C       -13.3815922652        5.2198715196        3.0871402312
 H       -15.8196229552        7.8258193521        5.1285736608
 H       -16.4620874555        7.3511421241        3.5497715681
 H       -15.8242185844        9.0113105793        3.7402668716
 H       -11.7529726148        6.3117771880        6.9888829477
 H       -12.7064662418        7.7478849094        6.7126085134
 H        -9.7562716327        7.3703801125        5.8128641089
 H       -10.2632333154        8.5134133349        6.9509582760
 H        -8.0565011265       11.2686789129        2.7748457868
 H        -9.3667377700       12.2919443276        2.1063792722
 H        -8.1543560050       12.1453266724        0.3772629080
 H        -9.0430022064       10.5741775664       -0.0832789885
 H        -8.2167400428        5.8369992286        1.2585861333
 H        -7.0363844267        6.0613807142       -0.0042855579
 H        -8.7298014014        5.8988950617       -1.5836881213
 H       -10.0412574958        5.7729880084       -0.4640959429
 H       -10.0957363486        1.3152331630       -3.3529871159
 H       -11.8670348018        1.4892954084       -2.9399639133
 H       -11.4231190268       -0.6397879206       -3.4682202787
 H       -11.6569122835       -0.6974808770       -1.6438590664
 H        -6.8812017348       -4.1478812368       -2.9686616255
 H        -8.2272173741       -3.4023284976       -3.5847610219
 H        -9.6607415200       -5.5774152383       -3.1584081224
 H        -8.4956507006       -6.0835749540       -2.2748652923
 H       -10.6393137930       -6.7432802349       -7.8729872510
 H       -11.8262763761       -6.3486193284       -6.6630104727
 H       -10.9633383514       -7.8380848934       -6.5040949302
 H        -8.2695632326       -8.7485842318       -6.6578370591
 H        -6.8663567998       -7.8378646424       -5.8994930116
 H        -7.7134716508       -7.2652360398       -7.3000443290
 H       -10.0474165715       -7.7443239983       -3.7128357717
 H        -8.8033294518       -8.9418037991       -3.8413197493
 H       -10.2121978017       -9.0025166444       -4.9269648751
 H        -9.8425065407       -1.3308041199        0.2249723462
 H        -9.4469294815       -3.0216064430        0.5693217625
 H       -11.0939874836       -2.7187660108        0.0259945930
 H       -10.8418652965       -4.6424254125       -1.6589968484
 H       -11.0611749510       -3.5491891899       -3.0694547424
 H       -11.8081003357       -3.3540758173       -1.4136085469
 H        -7.8485326096        3.9500684766       -2.6222614811
 H        -9.4567670731        3.8229775241       -3.1237602626
 H        -8.4207829494        2.3578061238       -3.4692700665
 H        -7.1591796659        2.1895228323       -0.7182569286
 H        -7.6302534948        0.8081532176       -1.7603512262
 H        -8.1664596847        1.1051997151       -0.0661417102
 H        -7.7193771401        8.3524648136       -2.2648146507
 H        -7.2766554182       10.1285411243       -1.9804224446
 H        -8.8570174199        9.3259016829       -1.7332895500
 H        -5.4069636266        8.1642392580        0.7801237922
 H        -5.3193658065        8.8857619568       -0.8649967963
 H        -5.8799412554        7.1859087858       -0.4970671013
 H        -8.7275773429       10.5008809099        5.8586585029
 H        -9.4492574412       11.7295677385        4.9974712617
 H        -7.9522336161       11.0586403912        4.4789775321
 H        -7.9895486712        8.4576154082        4.9551049439
 H        -7.5576037580        8.8773692887        3.3616651865
 H        -8.8460435301        7.6653442884        3.6260146957
 H       -13.8389025692        4.7458934343        5.6629410059
 H       -15.2654844868        4.9616270619        4.9373660732
 H       -14.7705602252        6.3194379249        6.0989789497
 H       -14.2245413486        4.5140727184        3.1173983309
 H       -12.6459673164        4.6130169679        3.4454361236
 H       -13.1824381568        5.5292250725        1.9981022241
 Na      -11.5593096663        8.2037132682        1.8942004012
