117

 C       -15.6634440806        8.3847637917        4.0985693718
 C       -14.3529241041        7.7877311096        3.3452893825
 O       -13.8268570804        8.2679128298        2.3337897079
 C       -13.6610459317        6.4203527519        3.9116368857
 C       -12.2433600886        6.8134414022        4.4440669907
 O       -11.2231881878        6.5167669109        3.8276460473
 C       -12.0384776518        7.3657979894        5.8069106868
 C       -10.7742432892        8.3403231825        5.7569521749
 C       -10.7428874566        9.3213328967        4.5981783072
 O       -11.6801354643        9.4112851634        3.8517764980
 C        -9.3492541330        9.8849974502        4.1178807188
 C        -9.5569165038       10.6925136310        2.8553218858
 O       -10.3808533854       10.3532434727        1.9894902262
 C        -8.5261254026       11.6996392639        2.3689362864
 C        -8.1474636030       11.2012710146        0.9829029961
 C        -7.2715613233       10.0304381699        0.8939376182
 O        -6.3916061792        9.9734640501        1.7438338462
 C        -7.3554189192        8.8807922992       -0.1553794311
 C        -8.4746558750        7.7084452163        0.3670907662
 O        -9.5224644821        8.0519129460        0.9057233620
 C        -8.1638758051        6.2187104863        0.2313222957
 C        -9.2915541362        5.2644071818       -0.3570402474
 C        -8.7313203148        3.7583689755       -0.4043497973
 O        -8.1533910849        3.3270700969        0.5896473334
 C        -8.9969909295        2.7640476865       -1.5517825554
 C       -10.3576713519        1.9721349203       -1.3027760921
 O       -11.1603759888        2.1814879143       -0.3735275929
 C       -10.6418864976        0.9494422883       -2.4182648639
 C       -10.9443750122       -0.6147617111       -2.0303516837
 C        -9.6165035554       -1.4372016247       -1.9363126828
 O        -8.5345640265       -1.0857216022       -2.3765030544
 C        -9.8544807133       -2.8059226158       -1.2025166848
 C        -8.4532842188       -3.7513953984       -1.4462964296
 O        -7.7016661321       -4.0105548321       -0.5407068217
 C        -8.2647652641       -4.2766311334       -2.8619946711
 C        -8.4075631565       -5.8200172248       -2.8897886644
 C        -7.9255828363       -6.5193598985       -4.1694351319
 O        -6.8425698396       -6.4107279821       -4.6055062054
 C        -8.9748981478       -7.3366328584       -4.9822600396
 C        -9.8547412545       -6.2826593941       -5.8558990948
 O        -9.5573749813       -5.1141715463       -5.8080364407
 C       -10.8391735919       -7.0478656591       -6.6705957014
 C        -8.1639352367       -8.4293706287       -5.7750064711
 C        -9.7683636297       -8.1835696331       -3.9356021941
 C        -9.9306862892       -2.5279994902        0.3334851399
 C       -11.1120587381       -3.4385855005       -1.8651369992
 C        -9.1008361836        3.5196267507       -2.8462098741
 C        -7.7722359468        1.8064110838       -1.5705903117
 C        -7.8345926784        9.3354620122       -1.5949663885
 C        -5.9808113076        8.1582993819       -0.2540145998
 C        -8.8248272909       10.5580628366        5.3347897343
 C        -8.3415495522        8.7157532079        3.7385429074
 C       -14.4739347184        5.6477171284        5.1887457209
 C       -13.7432305570        5.2904059045        2.7630207244
 H       -15.4788337594        9.4347444033        4.4104666882
 H       -15.9363480446        7.8522561818        4.9688838209
 H       -16.3898285799        8.2621796183        3.2732269639
 H       -11.8535707355        6.4761798759        6.4405990648
 H       -12.8492713848        7.9466849756        6.2626064272
 H        -9.8164476665        7.8084880316        5.7755627098
 H       -10.7173888590        8.9630225371        6.6422188572
 H        -7.7834131519       11.8917500940        3.1910981235
 H        -9.0281812340       12.7010767044        2.2668733272
 H        -7.6172175587       11.9664835570        0.3911842688
 H        -9.1089450926       10.9256746900        0.4027945558
 H        -7.9614118552        5.7498046179        1.3043258678
 H        -7.2010597758        5.9893948729       -0.3068068164
 H        -9.3695378447        5.5911405464       -1.3468285752
 H       -10.1802938623        5.5480334199        0.1421673812
 H        -9.7520753506        0.9046467288       -3.0426852162
 H       -11.4020392061        1.3293453946       -3.1718729505
 H       -11.5209493671       -1.0295715327       -2.7919488735
 H       -11.6077367818       -0.6462552507       -1.1563711558
 H        -7.3265850160       -4.0511379033       -3.2536327990
 H        -8.9927084404       -3.8512340064       -3.5992910242
 H        -9.3935136571       -6.1502390406       -2.5166018698
 H        -7.7746767720       -6.3015767614       -2.0554773417
 H       -10.5130417612       -7.9406719004       -7.1604538200
 H       -11.3700623782       -6.4896943514       -7.4960358759
 H       -11.5941705622       -7.2762467986       -5.9441195955
 H        -7.6795993736       -9.2721469314       -5.1645896211
 H        -7.4610833237       -7.8055734478       -6.2597501979
 H        -8.8615446080       -8.8123201464       -6.5696862684
 H       -10.3709699468       -7.5690493324       -3.3119394917
 H        -9.0709028983       -8.6853333141       -3.2587186378
 H       -10.3536497535       -9.0241417340       -4.3462190864
 H       -10.8410943627       -1.7450008103        0.5381317305
 H        -8.9977363097       -2.1097836637        0.6641220581
 H       -10.3982639541       -3.3869894579        0.7595978762
 H       -11.3792881015       -4.3485461085       -1.3265953841
 H       -10.9902918901       -3.5705423487       -2.9409065436
 H       -12.0352760493       -2.7773691798       -1.8803269856
 H        -8.1953998507        4.1764571758       -2.9387320759
 H       -10.0343250062        4.1140312130       -2.8767036047
 H        -9.0289193042        2.8885603198       -3.8166045206
 H        -6.8423574087        2.1011511218       -1.1290055226
 H        -7.6437510061        1.4066670261       -2.6303223269
 H        -8.0968081915        0.9206642873       -0.9900504490
 H        -7.8530835080        8.4850566200       -2.2942171155
 H        -7.0387371309       10.0676876835       -1.9075747842
 H        -8.8381215090        9.8545220282       -1.5865869138
 H        -5.9897289242        7.3917846909        0.4842566537
 H        -5.1350418222        8.9273568906       -0.3892619076
 H        -6.0790940023        7.5116135702       -1.1982095012
 H        -8.8186001598        9.7235387385        6.1296573411
 H        -9.4785494617       11.3966554920        5.6969449685
 H        -7.7673494335       10.9157114292        5.1599313673
 H        -8.0708654912        7.8697668034        4.3884602175
 H        -7.4793029764        9.3452980927        3.3346137916
 H        -8.8442061509        8.2496321597        2.8826871195
 H       -13.8051743296        4.8216829639        5.3844578457
 H       -15.3845621694        5.2079750769        4.9514226704
 H       -14.5845880500        6.3218541618        6.0426348901
 H       -14.7114930210        5.3292094174        2.2986812153
 H       -13.5661705303        4.3176643179        3.0241566827
 H       -13.1388411040        5.6565896630        1.9437556576
 Na      -11.6088607458        8.0178953526        1.9370511379
