117

 C       -15.4185330828        8.4715459244        3.9503717827
 C       -14.3608202615        7.7516969432        3.3061425850
 O       -13.9310019235        8.2554262639        2.2854962112
 C       -13.6753397678        6.4303797110        3.8678689714
 C       -12.2149773679        6.6353188581        4.3135699830
 O       -11.2619838935        6.3415609006        3.6096891753
 C       -12.1285782954        7.4756994842        5.6165705362
 C       -10.9027113966        8.3948500293        5.6448551478
 C       -10.8090283934        9.2104964044        4.4345497489
 O       -11.7324170828        9.5711599607        3.7235806102
 C        -9.3555972902        9.9010757697        4.1750844710
 C        -9.5214640846       10.6900778417        2.8221441394
 O       -10.3587731403       10.3623630020        2.0321374712
 C        -8.3216133265       11.6211168626        2.3852140950
 C        -8.1012988081       11.3476020379        0.9588162310
 C        -7.2250055874        9.9162918887        0.9611167246
 O        -6.3849568478        9.7629989794        1.7373167051
 C        -7.4575315304        8.6885054657       -0.1552389091
 C        -8.5080906158        7.7065727465        0.2817204942
 O        -9.5507306119        8.0459061663        0.8445921611
 C        -8.0869029896        6.2618655131        0.0990253866
 C        -9.1890839771        5.1291359083       -0.2752007852
 C        -8.6813736590        3.7381646504       -0.2925622994
 O        -8.1554260857        3.2335907299        0.6787446369
 C        -8.8981624303        2.8737754970       -1.6281506482
 C       -10.2917990401        1.9909667349       -1.3440625399
 O       -11.1833916232        2.1927113299       -0.5361400720
 C       -10.4251281736        0.9476996689       -2.4183127968
 C       -10.8786730854       -0.3998192450       -1.8018915807
 C        -9.6634950691       -1.2935020572       -1.8120025803
 O        -8.6950945188       -0.9193206750       -2.3465987612
 C        -9.8467877861       -2.8726949104       -1.0596088984
 C        -8.5919651394       -3.7992886389       -1.3596353142
 O        -7.6974213420       -3.8978379416       -0.5839453402
 C        -8.3659716814       -4.3656483916       -2.7746029438
 C        -8.2128937185       -5.9017108102       -2.7285066837
 C        -7.8485849707       -6.4891426325       -4.1095276641
 O        -6.7490671982       -6.3848434229       -4.6564504521
 C        -8.9720621466       -7.4106654472       -4.9178762465
 C        -9.8060725833       -6.5765075784       -5.7985646594
 O        -9.4740315856       -5.3596053175       -5.9037114838
 C       -10.9601222571       -7.0991927087       -6.6839115688
 C        -8.2792324855       -8.5673568675       -5.7526431001
 C       -10.0556354550       -8.0838218800       -3.8462983232
 C        -9.9923761759       -2.6217189011        0.4519235685
 C       -11.1247141937       -3.4363092120       -1.6354228772
 C        -9.1580887996        3.6958566336       -2.9316164833
 C        -7.7327339251        1.9447323024       -1.8992516750
 C        -7.9761532630        9.3820695185       -1.4354052225
 C        -6.0351549088        8.0191732507       -0.2276337859
 C        -8.6568208917       10.6625909686        5.5335922411
 C        -8.3544447507        8.7986315888        3.8663982947
 C       -14.3080625827        5.8122582394        5.1605157438
 C       -13.8459293802        5.4897875390        2.7022811806
 H       -15.2256735673        9.5230315747        3.7529174861
 H       -15.4686110221        8.3375883339        5.0879874391
 H       -16.1961086223        8.0913422253        3.4304959302
 H       -12.1405962634        6.7769587736        6.4696509540
 H       -13.0092573532        8.1606181677        5.7264516528
 H        -9.9644617759        7.8217589029        5.8127935514
 H       -10.8943049441        9.1790769923        6.4009844448
 H        -7.4357953272       11.2394408703        2.9382817589
 H        -8.4131627116       12.6232839555        2.8948644713
 H        -7.2859045847       11.9953657934        0.4741888171
 H        -8.9960310592       11.3697462136        0.2735118646
 H        -7.5225885583        5.8373941813        1.0196970907
 H        -7.3186177585        6.1859858155       -0.7152921557
 H        -9.7108830845        5.4351450781       -1.1047483898
 H        -9.9264468207        5.2122873751        0.6260130343
 H        -9.6356540125        0.9323266684       -3.2035428936
 H       -11.3121743395        1.3087150675       -3.0369220105
 H       -11.7921527924       -0.9188396404       -2.2489401822
 H       -11.2970470050       -0.0842950228       -0.9275542637
 H        -7.3861441975       -4.0341635897       -3.1296036441
 H        -9.0163861743       -4.1496293621       -3.5412692899
 H        -9.0699908847       -6.4264483831       -2.3080308738
 H        -7.4172002533       -6.2530841742       -2.1249192249
 H       -10.9986023656       -8.0576872183       -7.2870438332
 H       -11.0939101022       -6.3200284717       -7.4341979422
 H       -11.9066452804       -6.9622802387       -6.1285306815
 H        -7.3742217685       -8.9207215946       -5.2305558161
 H        -8.0311249197       -8.1946529291       -6.7564082073
 H        -9.0855214527       -9.2992882094       -5.8900837510
 H       -10.7053175606       -7.2874921664       -3.5710148122
 H        -9.6834025113       -8.5328106149       -2.8471586079
 H       -10.6404296592       -8.9163595178       -4.3037404355
 H       -11.0376683311       -2.3976554768        0.6979088281
 H        -9.2857121293       -1.7879598400        0.7893456122
 H        -9.9536816076       -3.5738419364        0.9199545185
 H       -11.2165405112       -4.4519963490       -1.3978682416
 H       -11.2933932148       -3.2007289112       -2.7795995332
 H       -11.9823896830       -2.8971311542       -1.2520494343
 H        -8.4501166856        4.5724754892       -3.1892895968
 H       -10.2934784384        3.9680274096       -2.9328157115
 H        -8.9724530359        3.0443418264       -3.7897204996
 H        -6.8189868451        2.5378234194       -1.7463741550
 H        -7.6512852048        1.3519170848       -2.8951900025
 H        -7.6629837305        1.2126382858       -1.0863711709
 H        -8.0732976682        8.8196094755       -2.3712491493
 H        -7.3307758874       10.2891177008       -1.6004922624
 H        -8.9201034289        9.7984252607       -1.0535109472
 H        -5.9459418419        7.5353548250        0.7577240388
 H        -5.4273239705        8.9283298768       -0.4465388508
 H        -5.8466313133        7.2004128115       -0.9837448676
 H        -8.3025696107        9.9584222062        6.1918466317
 H        -9.3779250286       11.3933682522        6.0460157806
 H        -7.8395998015       11.2064062876        5.1432036356
 H        -8.1735983406        8.0121217423        4.6087990899
 H        -7.4909280474        9.2938421541        3.5496394551
 H        -8.8222059803        8.1913919827        3.0407963460
 H       -13.6285860987        5.0973440330        5.5584196312
 H       -15.3211120623        5.3625163603        5.0077274159
 H       -14.4049669552        6.6028853666        5.8182321705
 H       -14.7842988373        5.5006636377        2.2741606067
 H       -13.5872801719        4.5079000830        2.9075476217
 H       -13.2585546386        5.9047859476        1.8998189471
 Na      -11.6316731008        7.9882288208        1.9861072818
