117

 C       -15.3004993820        8.8106114931        3.8749273338
 C       -14.3106344650        7.8450358000        2.9669276715
 O       -13.7024244201        8.2670455183        2.0084515831
 C       -13.9133291025        6.2971638369        3.6447527326
 C       -12.5182116403        6.5921501384        4.1928753010
 O       -11.5602479937        6.5987640489        3.4307069253
 C       -12.2735948845        7.2621353358        5.6173780921
 C       -10.9207975696        8.1872393055        5.6459024089
 C       -10.7165270000        9.3387336080        4.5523070994
 O       -11.6308475651        9.9669782213        4.0953718110
 C        -9.2754633067        9.9500621736        4.1648149848
 C        -9.2581045927       10.5976270093        2.7879566647
 O       -10.0491001511       10.3375082385        1.9148471990
 C        -8.0938812360       11.5219540943        2.3970232208
 C        -7.4053942212       11.0537543086        1.1208528820
 C        -7.0299598026        9.5628156605        1.0176806097
 O        -6.4984827517        9.1084214380        1.9610019756
 C        -7.3868634151        8.6690255741       -0.2421291657
 C        -8.3964356216        7.4937570248        0.1550679461
 O        -9.5584404463        7.8205087746        0.4388206759
 C        -8.1211458073        6.0474731695       -0.2739933476
 C        -9.2622006117        5.0141530218        0.2001189824
 C        -8.6945227598        3.6557930426       -0.3483940615
 O        -8.0398261239        2.9534839910        0.3872972081
 C        -8.8639617847        3.3070951959       -1.8704522283
 C       -10.1675401454        2.2770847604       -1.5582922596
 O       -10.9468613261        2.6301725589       -0.6698861861
 C       -10.5033488347        0.8446321208       -2.2839035712
 C       -10.7877351897       -0.3741748703       -1.3429248614
 C        -9.6621397730       -1.4555288348       -1.5628934659
 O        -8.6317068214       -1.2234462177       -2.0296775255
 C        -9.9307076677       -2.9208335371       -0.8455549565
 C        -8.6750652536       -3.8644326913       -1.2717301234
 O        -7.6431105558       -3.8212675645       -0.7172166014
 C        -8.8737501596       -4.5419071188       -2.6547711064
 C        -8.1000107041       -5.9069188431       -2.7329473235
 C        -7.9570573267       -6.6598141705       -4.0101896272
 O        -6.9350779412       -6.5752215255       -4.6740702512
 C        -9.2041492936       -7.4573549240       -4.5032585372
 C        -9.6986763162       -6.6998277405       -5.7640400364
 O        -9.2934402933       -5.5910183168       -6.2226511708
 C       -10.9219156507       -7.2927293716       -6.5236582108
 C        -8.4982720929       -8.7411912391       -5.0548361200
 C       -10.3408543938       -7.8481129224       -3.4693507546
 C        -9.9237232888       -2.6422297080        0.6680707267
 C       -11.3573095555       -3.5248398461       -1.2528217865
 C        -9.2266814434        4.3933359096       -2.8020596781
 C        -7.5676059992        2.6083329616       -2.2969260730
 C        -8.1170938591        9.3757045879       -1.3544437129
 C        -6.1307951844        8.1745318332       -0.8827673057
 C        -9.0172579819       11.0487221362        5.2449103779
 C        -8.2351568163        8.7953312760        4.2791092792
 C       -14.9184054482        5.9489463563        4.6811497918
 C       -13.8433243869        5.2001266225        2.6126278574
 H       -15.9778512425        9.4526668613        3.2747674154
 H       -14.6617514056        9.5803383805        4.4070642357
 H       -15.8340552936        8.1522303337        4.4314703021
 H       -12.0594448930        6.5061871393        6.3766724945
 H       -13.0851022223        7.8991385717        5.9376156282
 H       -10.1614271437        7.3925994676        5.4689381510
 H       -10.8225460859        8.6413553585        6.6324061613
 H        -7.4682622068       11.5807338934        3.2949618505
 H        -8.3055212844       12.5922763668        2.3635846376
 H        -6.5825697635       11.7188406909        1.1723473292
 H        -7.9540836468       11.4204082656        0.2446166635
 H        -7.2305451947        5.7528263657        0.4129294511
 H        -7.8186126601        5.7499119646       -1.2555727744
 H       -10.0895660152        5.0877018525       -0.3068862439
 H        -9.4552359405        5.0279349742        1.2569764175
 H        -9.8898389189        0.4423836843       -3.0340548635
 H       -11.3860267861        1.0462338355       -2.9024484412
 H       -11.7107303697       -0.8479628789       -1.5986237175
 H       -10.9701992894       -0.3539239783       -0.2660055075
 H        -8.5061495124       -3.9045942477       -3.4404298562
 H        -9.9299427777       -4.8244936659       -2.8785021416
 H        -8.7783901873       -6.5750356568       -2.0807266745
 H        -7.0110615189       -5.8093985326       -2.3577764947
 H       -11.1711503968       -8.3125407435       -6.2857680394
 H       -10.9635280984       -7.1828884152       -7.6148539362
 H       -11.7425285592       -6.6940518416       -6.2143554125
 H        -7.8519423690       -8.5204940102       -5.9272544502
 H        -9.2059107085       -9.5101192490       -5.1618427323
 H        -8.0686904323       -9.1995392651       -4.1470882891
 H       -10.6791157998       -7.0938699853       -2.8609451412
 H        -9.7691931057       -8.5012600356       -2.7839580425
 H       -11.1953096773       -8.4242444523       -3.8934383719
 H       -10.9224293804       -2.2232295147        1.0267560922
 H        -8.9881205222       -1.9685537930        0.7767841689
 H        -9.7319272899       -3.4715394902        1.2979043525
 H       -11.4676532210       -4.5176015595       -1.0144064758
 H       -11.4478663822       -3.5141218746       -2.4273790109
 H       -12.1801854455       -2.8781512285       -0.9217879784
 H        -8.3618048897        4.9814888346       -2.9895194722
 H       -10.0513247469        4.9835918598       -2.4088456992
 H        -9.4498624373        4.1106806455       -3.7868546218
 H        -7.1233032045        3.1099582824       -3.0865518854
 H        -7.7628647462        1.4971078538       -2.4887683322
 H        -6.8496514183        2.5740230672       -1.5295213552
 H        -8.1982962868        8.8619720652       -2.2709987202
 H        -7.5386320813       10.2576223012       -1.6915154389
 H        -9.0251807433        9.7739940476       -0.8741749306
 H        -5.5985428938        7.6315038639       -0.1205758112
 H        -5.4655912477        8.9851161998       -1.3243933874
 H        -6.4243748086        7.5266020030       -1.7377702674
 H        -9.0857105558       10.4685902841        6.1739609061
 H        -9.8946211283       11.8565117579        5.1024548641
 H        -8.0356488393       11.5876728918        5.2852956114
 H        -8.1170749103        8.6028598552        5.3611536684
 H        -7.3152095104        9.1620604893        3.8505320230
 H        -8.7117889301        7.8495784011        3.9391027131
 H       -14.6068573620        4.9497843871        4.9643564142
 H       -15.9155775171        6.0396002540        4.1856161896
 H       -14.8455973349        6.5223095873        5.6128268048
 H       -14.8980686008        4.8791867632        2.4917458425
 H       -13.2910797861        4.3614733619        2.9226637547
 H       -13.6171218237        5.5174564274        1.5198838625
 Na      -11.3200225774        8.4700888971        1.7558041644
