117

 C       -15.1866869338        8.8314442111        3.5787849931
 C       -14.2378389774        7.8578930655        3.0328772958
 O       -13.6535516465        8.1808498836        2.0191387581
 C       -14.0166823776        6.4242445593        3.6386548297
 C       -12.5262748461        6.8161324554        4.1657877808
 O       -11.5985525187        6.8418335729        3.3881356299
 C       -12.2406334887        7.3017964335        5.5295250395
 C       -10.8894853759        8.0908694288        5.4521358621
 C       -10.8914239079        9.3122680592        4.5721581810
 O       -11.8019607241        9.9967058803        4.0888603191
 C        -9.3800957571        9.8598720543        4.2965754156
 C        -9.2359527229       10.3612926919        2.7971784944
 O       -10.0366743241       10.1903086406        1.9221231856
 C        -7.9500285904       11.3038453957        2.4467981235
 C        -7.2719844755       10.9576732555        1.0810937836
 C        -7.1022669032        9.4332532322        1.0185681674
 O        -6.5770346821        8.7384630079        1.8552122433
 C        -7.3954461947        8.6841556088       -0.3909017697
 C        -8.3882194657        7.5221167704        0.0732852558
 O        -9.5175466412        7.8551196642        0.4296882258
 C        -7.9070224928        6.0535375394       -0.1460878835
 C        -9.0043092229        5.1030497948        0.1765557161
 C        -8.5275184376        3.6164407007       -0.3422929011
 O        -7.9492115865        2.8371693692        0.3763614821
 C        -9.0180761427        3.2107395189       -1.7601272287
 C       -10.2547516886        2.2684259951       -1.5008977205
 O       -11.0500402351        2.7028170689       -0.7285679180
 C       -10.2266236099        0.9126122369       -2.1877192445
 C       -10.6978288045       -0.2828705782       -1.3363409278
 C        -9.6515093639       -1.4462399219       -1.4262929748
 O        -8.6019850299       -1.3162545508       -2.0513926465
 C        -9.8991042922       -2.8314080128       -0.8492999299
 C        -8.7842411296       -3.7596506538       -1.4295916261
 O        -7.7567706565       -3.9013462560       -0.7559432603
 C        -8.9864330455       -4.6569614378       -2.6694557369
 C        -8.0624510449       -5.9218626742       -2.5444307568
 C        -7.9421890774       -6.5230649772       -3.9596440722
 O        -6.8969856713       -6.5794116836       -4.6145877488
 C        -9.2014890479       -7.4887275008       -4.4191393968
 C        -9.8864391457       -6.7050059607       -5.7133962698
 O        -9.2080438023       -5.8269132536       -6.1577343660
 C       -11.0325546410       -7.3905091291       -6.5893080314
 C        -8.6132133116       -8.8083655874       -4.9203279124
 C       -10.2642896821       -7.6208219228       -3.3713300590
 C        -9.9407596533       -2.6825843946        0.7329398933
 C       -11.3170693067       -3.3913800026       -1.0529656183
 C        -9.3648106652        4.4908306087       -2.8510858487
 C        -7.6985647874        2.5512853857       -2.4787307568
 C        -8.2379289504        9.6554118065       -1.3299930885
 C        -6.0735895080        8.0259301557       -0.9698562403
 C        -9.0546734377       11.1251251695        5.2879231443
 C        -8.0418132189        8.9552112993        4.4242346950
 C       -15.0948711180        5.9429099045        4.6710885037
 C       -13.7839437711        5.3114313866        2.4841068197
 H       -15.8841489348        9.2071855634        2.8853153191
 H       -14.6449745771        9.7475978215        3.9382789179
 H       -15.7434321661        8.2383105795        4.3113657340
 H       -12.0237546224        6.4527958183        6.1644906992
 H       -13.0308740374        7.9302694178        5.9694272380
 H       -10.2087173321        7.3542647759        4.9787716084
 H       -10.5991116250        8.3587460717        6.4503853230
 H        -7.3428976415       11.4848072126        3.3465335341
 H        -8.2775763893       12.3892720260        2.4147589533
 H        -6.3391017552       11.6310876930        1.0808620451
 H        -7.8463989976       11.3935121452        0.2371409056
 H        -6.8795308928        5.6732345791        0.1420422116
 H        -7.9013352251        5.8931580600       -1.3246358146
 H        -9.9380916369        5.2948783236       -0.4495680343
 H        -9.2412174750        5.0737326576        1.1803488467
 H        -9.3622794771        0.5036595765       -2.7487659997
 H       -10.8923078681        1.0338500449       -3.0630768863
 H       -11.7018259299       -0.6659744507       -1.5740930456
 H       -10.8392539956       -0.1965348842       -0.3506728241
 H        -8.6938650882       -4.2621285019       -3.6442101587
 H        -9.9633479129       -4.8821440584       -2.6938431632
 H        -8.5333999003       -6.6782030870       -1.8503674608
 H        -7.1028912097       -5.5398146077       -2.2470541243
 H       -11.1985316880       -8.4839948757       -6.5291495523
 H       -10.8150731664       -7.1410974330       -7.5689541826
 H       -11.9954447094       -6.9171611241       -6.4517858011
 H        -8.4329098666       -8.8077014435       -5.9878490116
 H        -9.2602328671       -9.6110248062       -4.5096293471
 H        -7.8130874112       -9.1008581257       -4.2848058380
 H       -10.5071493451       -6.6423242424       -2.9992040431
 H        -9.9075493947       -8.1658659003       -2.4687074584
 H       -11.1666252397       -8.0551865005       -3.7624101589
 H       -10.6453123400       -1.9632959087        0.9997984624
 H        -8.8439496491       -2.4758197207        1.0602875317
 H       -10.2125059798       -3.6639706887        1.2859264470
 H       -11.4693325329       -4.3745370032       -0.5834934706
 H       -11.6020566278       -3.5533622098       -2.1391827086
 H       -11.9842113397       -2.6007277784       -0.6836986298
 H        -8.4416011033        5.0157181320       -3.2422738595
 H       -10.2068362420        5.2350218645       -2.6237319199
 H        -9.6863390798        4.0217235540       -3.7705364209
 H        -7.6531938438        3.2108572610       -3.3578360525
 H        -7.6794410966        1.5024230016       -2.7221716573
 H        -6.7676474006        2.7328654413       -1.9706679979
 H        -8.5872053961        9.1470242107       -2.2453680126
 H        -7.6299741763       10.4163503220       -1.8692661644
 H        -9.0147947613       10.1475681189       -0.7511510966
 H        -5.4766850295        7.4145829724       -0.1629216235
 H        -5.3563748757        8.7924897389       -1.4096986124
 H        -6.4355373103        7.4447167695       -1.8671220560
 H        -9.3891081534       10.7767339837        6.3104310093
 H        -9.5523399112       12.0266125812        4.9194610132
 H        -7.9266308830       11.3501883489        5.4783542559
 H        -7.8353145083        8.8822586247        5.5312647840
 H        -7.3051616750        9.5908963077        4.0162618964
 H        -8.1569296858        7.8887740603        4.0658077728
 H       -14.8603683172        4.9376436412        4.7959583769
 H       -16.0936996527        6.1691038499        4.2412172371
 H       -14.9573615746        6.3257521124        5.6077253922
 H       -14.7300823075        5.0289145641        2.2029963792
 H       -13.3151359758        4.4000238922        2.9596926674
 H       -13.3160627763        5.5729604872        1.6167423269
 Na      -11.3610651329        8.6267194938        1.7849936124
