117

 C       -15.7524333837        8.9550633972        2.8793655506
 C       -14.3371798134        8.2826501016        2.4287969013
 O       -13.9466932973        8.4616975792        1.3108592140
 C       -13.9338697900        6.9090667054        3.1989845840
 C       -12.3731633985        7.0675523116        3.8163625139
 O       -11.3928601777        6.7440859848        3.1743633091
 C       -12.2529534363        7.3815596013        5.3231772204
 C       -10.8880799450        8.1268835652        5.6634153313
 C       -10.5574844839        9.1634536151        4.5618209833
 O       -11.4205698767        9.4994251208        3.7127599914
 C        -9.2081990567        9.9037395960        4.6562088414
 C        -8.7085790879       10.1176886735        3.1326497222
 O        -9.5522228428       10.1488541171        2.2909868063
 C        -7.1258250422       10.6176738913        2.8588654024
 C        -6.9306185752       10.6929451536        1.4187249916
 C        -7.1422387278        9.1962444695        0.8000354317
 O        -6.8288023148        8.3285065841        1.6470942681
 C        -7.5393241844        8.7592496034       -0.6081214283
 C        -8.4507388738        7.4210702492       -0.3890969511
 O        -9.6244598698        7.5705998747       -0.1101389204
 C        -7.7667251817        5.9816821326       -0.1650357000
 C        -8.6007556938        4.9029033902        0.3854983812
 C        -8.3194871171        3.5879842341       -0.4982185721
 O        -7.5012177695        2.8000359733       -0.0577607802
 C        -9.0404755710        3.3934505660       -1.8667430766
 C       -10.3188022996        2.3033118102       -1.6446801883
 O       -11.2867686412        2.5909553112       -1.0009665136
 C       -10.1389977135        0.9567250040       -2.3188778597
 C       -10.2031149028       -0.1513868713       -1.1838761272
 C        -9.5090604276       -1.4670760419       -1.3141725965
 O        -8.6749162416       -1.5306824105       -2.2633082146
 C        -9.9151651102       -2.8402764957       -0.3979259455
 C        -8.9693323439       -3.9679553340       -0.9436774402
 O        -7.8542611183       -4.1561415205       -0.4161973854
 C        -9.1444004634       -4.5908858196       -2.2968673376
 C        -8.0926105782       -5.7420301105       -2.4964502719
 C        -8.1835399659       -6.6642441518       -3.7719230813
 O        -7.1483438522       -6.7582575036       -4.3567434300
 C        -9.3700466241       -7.6070471591       -4.1968832375
 C        -9.9200278246       -7.1139494222       -5.5924698410
 O        -9.4226385265       -6.1914129209       -6.1546997073
 C       -11.1195542403       -7.6983952570       -6.3709424360
 C        -8.6687141110       -9.0472002530       -4.2415010145
 C       -10.6425722801       -7.4368374465       -3.2213330725
 C        -9.9344458691       -2.4271643403        1.0633260869
 C       -11.3721657703       -3.2084847296       -0.7910504900
 C        -9.6894983854        4.7004617428       -2.1825823585
 C        -7.9084215478        3.1559277556       -2.9003807440
 C        -8.5444503921        9.7994370979       -1.1591900547
 C        -6.2295098507        8.3987196762       -1.5441671717
 C        -9.5099722435       11.2376790970        5.2305946998
 C        -8.1020530953        9.3983442370        5.5572896942
 C       -14.8812486870        6.6905600948        4.4493956227
 C       -13.9095316532        5.6098928904        2.3094192470
 H       -16.4268309132        8.6159681074        2.1283036702
 H       -15.9012709878        9.9857328580        3.0293456431
 H       -16.0999758148        8.3675359589        3.7977673251
 H       -12.3176557014        6.3972465520        5.7563326069
 H       -13.0240267035        8.0790084860        5.6770908574
 H       -10.1069711315        7.3834198048        5.8472216378
 H       -11.1959697528        8.7600728794        6.4862452583
 H        -6.5360891528        9.8432899317        3.3556403729
 H        -6.9611864276       11.3883372470        3.6428597399
 H        -5.8465519469       10.9174221118        1.2204047274
 H        -7.4855002832       11.5012958416        1.0099549030
 H        -6.9635957957        6.3384740102        0.4819841779
 H        -7.3185191594        5.6408230753       -1.1937799619
 H        -9.6218617910        5.2887877552        0.3055099453
 H        -8.5133373322        4.6561548156        1.3725095709
 H        -9.2796146956        1.0055681131       -3.0123131832
 H       -10.9817036552        0.6668439603       -2.9235621439
 H       -11.1331688479       -0.2120499018       -0.6413780339
 H        -9.5929050339        0.2353843403       -0.4443193610
 H        -9.1023495907       -3.6978943720       -2.9856200393
 H       -10.0970932079       -4.9924309891       -2.2722881023
 H        -8.3686023309       -6.3522262283       -1.5497435132
 H        -7.1366953423       -5.2111951166       -2.5380143701
 H       -11.1787982185       -8.7895091840       -6.2458208156
 H       -11.2299457561       -7.6293374995       -7.3989625531
 H       -12.0618338488       -7.3845062035       -5.9134277208
 H        -9.2605508415       -9.8167941922       -4.7566707098
 H        -8.3075513215       -9.3994199085       -3.1998787695
 H        -7.7414184244       -8.9140567959       -4.8058274990
 H       -10.9645903859       -6.3777741228       -3.4104630980
 H       -10.4556599717       -7.5592562686       -2.1792177332
 H       -11.4289045497       -7.9689093425       -3.6261287032
 H       -10.4985796918       -1.5119733195        1.1419790395
 H        -8.8831830270       -2.4072855862        1.4337005052
 H       -10.3119346744       -3.3131788577        1.7411330119
 H       -11.6286373151       -4.2961461817       -0.4444748572
 H       -11.6362638530       -3.1289028112       -1.7985228610
 H       -11.9979539775       -2.6862885176       -0.0848603719
 H        -8.9506752046        5.4422072289       -2.0407444628
 H       -10.4478446049        4.9648877953       -1.4586481041
 H       -10.1961408881        4.8021723575       -3.1236228514
 H        -7.2588723317        2.3731118164       -2.4289621745
 H        -7.3927891192        4.0063046782       -3.1189638017
 H        -8.4043253992        2.8017654830       -3.8309050182
 H        -8.8865479689        9.5981010467       -2.2167470360
 H        -8.2232449740       10.8450695426       -1.0820372205
 H        -9.4348454054        9.7108521005       -0.5330574252
 H        -5.4816645838        7.7073905809       -1.0685080582
 H        -5.5730262901        9.2050381365       -1.7496464886
 H        -6.6314873751        8.0190808426       -2.4773482674
 H        -9.4647034978       11.1731040765        6.4297158177
 H       -10.5154811274       11.5614512791        5.0126858303
 H        -8.7703774159       12.0657472840        4.9091726814
 H        -8.3937897174        9.3113717258        6.6306786922
 H        -7.4121181656       10.2435263495        5.4746942828
 H        -7.6111596543        8.5482270944        5.0183809321
 H       -14.2400110764        5.9672661390        5.0213408571
 H       -15.8906967085        6.3390095119        4.2793197156
 H       -14.7674068468        7.6121931646        5.0276175026
 H       -14.8766801929        5.5499299902        1.8130643531
 H       -13.6910574691        4.6361452142        2.8665561793
 H       -13.1589305801        5.6565143925        1.5761161034
 Na      -11.2191578633        8.5533117246        1.4010744852
