117

 C       -15.3640444130        8.7160320128        1.3323361957
 C       -13.9832376425        8.4295347576        2.0399396889
 O       -12.9947728200        9.1489028947        1.8506051760
 C       -13.8104540661        7.1445403993        2.8696864994
 C       -12.4136743724        7.0899975675        3.4185414001
 O       -11.5314965841        6.5094710404        2.7701346690
 C       -12.1130464435        7.4828784248        4.8401545469
 C       -10.7039483577        8.0003002739        5.1104395340
 C       -10.5817707518        9.3553517860        4.5367039410
 O       -11.5225838243        9.9497241112        4.1019931376
 C        -9.2539949764       10.1342043508        4.4674965519
 C        -8.4064638226        9.7949141386        3.2917852946
 O        -8.7880680023        8.9782299698        2.4459577726
 C        -7.1253741233       10.4371600696        3.0436595543
 C        -6.4951418323       10.1604146558        1.5897239650
 C        -6.8613565569        8.7941327336        1.1043572525
 O        -6.4229442898        7.8087959651        1.6331070689
 C        -7.7893956702        8.7417415560       -0.1871709733
 C        -8.5138365374        7.4382255756       -0.1758252362
 O        -9.7033465619        7.4176079958       -0.1619324867
 C        -7.7516853436        6.0031085045       -0.5166843512
 C        -8.4787781008        4.8306734380        0.1046132896
 C        -8.4028562641        3.7238297363       -0.9555475546
 O        -7.6176600205        2.8163516123       -0.8965878263
 C        -9.2957943497        3.6531193654       -2.1882255665
 C       -10.0390870853        2.3703244304       -1.7168489271
 O       -11.0589324608        2.3703122134       -1.0496186801
 C        -9.3533744507        1.0633072684       -2.0225589035
 C        -9.5788554934        0.0449233699       -0.8333259563
 C        -9.4228182742       -1.4671499720       -1.2981440925
 O        -9.3737404379       -1.7194907301       -2.4511016216
 C        -9.7328824626       -2.6111238535       -0.3331680144
 C        -8.9498809398       -3.9840184015       -0.5732205618
 O        -8.4426507728       -4.5166601783        0.3444958685
 C        -8.9277223018       -4.5580569791       -2.0221423292
 C        -8.4624354530       -6.0820694761       -2.0942890797
 C        -8.3760531037       -6.7118634270       -3.4440933775
 O        -7.5098755244       -6.3227067774       -4.2217158411
 C        -9.5238336959       -7.7557164710       -3.7796297576
 C       -10.0862524983       -7.3330492506       -5.2787490872
 O        -9.7184456785       -6.4162294347       -5.9691864122
 C       -11.2754519184       -8.1852864881       -5.8651501539
 C        -8.9662949917       -9.0993448431       -3.5534394950
 C       -10.7912206136       -7.6967300458       -3.0061761177
 C        -9.6766180722       -2.5227450333        1.2757651062
 C       -11.1687588450       -2.9621555074       -0.7246600333
 C       -10.2672881265        4.8626958070       -2.1976130193
 C        -8.5123780281        3.4503073072       -3.5697313401
 C        -8.8374799849        9.9968548043       -0.3222031081
 C        -6.9174810594        8.9733089288       -1.3908422219
 C        -9.6399391182       11.6794219033        4.5550461542
 C        -8.4766391175        9.7098497668        5.7932361776
 C       -14.9780264408        7.3903252913        3.8557505102
 C       -14.0751490585        5.8296040665        1.9164873930
 H       -16.0087157891        7.8084998844        1.2530342728
 H       -15.2183195447        9.1921247352        0.3502347689
 H       -15.7966098864        9.5361682548        1.7732454890
 H       -12.1567487312        6.5096938186        5.3761507111
 H       -12.8912879391        8.0803318981        5.3013747818
 H        -9.9096251356        7.3660529768        4.7123484323
 H       -10.6126724170        8.0766062786        6.2161323752
 H        -6.4249559497       10.3289864803        3.9349373134
 H        -7.1847976073       11.5527350151        3.0018162323
 H        -5.4363151381       10.2802198622        1.8125737385
 H        -6.8991054531       10.9647104140        0.9146785815
 H        -6.6480576775        6.1038979349       -0.3440056657
 H        -7.8837928187        5.9551902042       -1.6513953681
 H        -9.5706651996        5.0910926639        0.2198661948
 H        -8.2352877714        4.5486259001        1.1972967828
 H        -8.3364589100        1.4018038147       -2.2706723567
 H        -9.9308902954        0.6474552616       -2.8580448970
 H       -10.5131023636        0.2093315930       -0.4843304657
 H        -8.8266419744        0.3012150499       -0.0518823858
 H        -8.2253121969       -3.9963014501       -2.5478222701
 H        -9.9087946620       -4.4618641066       -2.5305291191
 H        -8.9887112946       -6.6939558377       -1.4625649268
 H        -7.4835163935       -6.1687729439       -1.5503778293
 H       -11.1121368891       -9.1729115394       -5.4972167918
 H       -11.4115547475       -8.2821524486       -6.9629264590
 H       -12.2722351394       -8.0534039418       -5.4948604947
 H        -9.2781426504       -9.9457024507       -4.1640643994
 H        -9.3162461877       -9.4487102897       -2.6263453828
 H        -7.8998667865       -8.9610206965       -3.7574820840
 H       -11.2802047900       -6.8279773756       -3.3987289781
 H       -10.6379457422       -7.7363528151       -1.9686351694
 H       -11.3251405115       -8.6162326585       -3.1652364755
 H       -10.1223691759       -1.5443710397        1.7200032950
 H        -8.6018175401       -2.4905945690        1.7187655284
 H       -10.2882947013       -3.3803107115        1.5280344532
 H       -11.6675786034       -3.7536298646       -0.2455959903
 H       -11.1062258516       -3.0163970657       -1.8552957938
 H       -11.7879535933       -2.0235463937       -0.6518616676
 H        -9.8075463316        5.8279801244       -2.1271823491
 H       -10.8136276714        4.8661099419       -1.2735949428
 H       -10.9318046022        4.9909850495       -3.0682165416
 H        -8.6933371162        4.3982634880       -3.9457659146
 H        -9.0140149848        2.6657140412       -4.2261007124
 H        -7.5203558896        3.1360564634       -3.4987676899
 H        -9.4371234321        9.7509057400       -1.1588839740
 H        -8.2156933414       10.8327156039       -0.5072808934
 H        -9.6801990502       10.2444233698        0.3227307769
 H        -6.2244158008        8.2345493134       -1.6098894494
 H        -6.4309609605        9.9532244128       -1.2498522789
 H        -7.4720105979        9.0921471729       -2.3162270889
 H       -10.4572340627       11.9921868046        5.2166625546
 H       -10.1220954939       11.9901313239        3.5261236600
 H        -8.6940037159       12.2959199611        4.7603323061
 H        -9.1660389064       10.0191631715        6.5541612890
 H        -7.5288305356       10.2998712301        5.8746296109
 H        -8.1627744195        8.7048000065        5.6389109573
 H       -14.9449837398        6.5346812791        4.5128168021
 H       -15.9657191762        7.2968201601        3.4003973009
 H       -14.9037391403        8.4072761668        4.2434557929
 H       -14.6968625489        6.0410666863        1.0764762613
 H       -14.6353905905        5.0437431605        2.3854315442
 H       -13.1129853461        5.4065232751        1.5547867896
 Na      -10.9062260659        8.5032666548        1.5309784122
