117

 C       -15.1611429790        8.7666997540        0.8333899581
 C       -13.8507279286        8.6103775830        1.6354022330
 O       -12.8656935054        9.2826769543        1.4667873130
 C       -13.8617497378        7.1502938605        2.6218225374
 C       -12.3989603962        6.9985781125        3.2377186112
 O       -11.4728496055        6.4488158090        2.6568017306
 C       -12.1114731740        7.3476090253        4.6832868454
 C       -10.7925815708        8.0360502967        4.8507538157
 C       -10.7727630875        9.5598547235        4.5996369666
 O       -11.7975400883       10.2099267031        4.3961208292
 C        -9.3420624950       10.2785261571        4.4933498408
 C        -8.3819930222        9.6418895727        3.4254984425
 O        -8.6787975840        8.6214316045        2.8608685395
 C        -6.9890573690       10.2508680830        3.1577434018
 C        -6.3443111773       10.0872710029        1.7360980102
 C        -6.7078754628        8.8710709414        0.9910439469
 O        -6.2923092357        7.7851357333        1.4271113072
 C        -7.7962264281        8.9152725152       -0.2065840043
 C        -8.5056067640        7.4576858193       -0.1711183430
 O        -9.7334728632        7.4392246909        0.1300780998
 C        -7.6283452750        6.2907259543       -0.5551225672
 C        -8.3689483357        5.0083867286       -0.1710132573
 C        -8.1622404612        3.8854271435       -1.1182215176
 O        -7.2407940390        3.0779905478       -1.1581764739
 C        -9.4451860535        3.5813865482       -2.1919331196
 C       -10.0324947591        2.1918113554       -1.7504457763
 O       -11.1443413456        2.1370928219       -1.2345430616
 C        -9.3500114841        0.8352501149       -2.0779238203
 C        -9.3333559954       -0.0996832595       -0.8911755597
 C        -9.5839672089       -1.5528882832       -1.2831733347
 O        -9.2738809310       -1.8634586535       -2.4541413582
 C        -9.9373367934       -2.6804775971       -0.2609875263
 C        -8.9613306047       -4.0003785602       -0.5405655173
 O        -8.5493506313       -4.6814230863        0.3828809657
 C        -8.7283168272       -4.3756031565       -2.0445893488
 C        -8.6903898702       -5.8889601515       -1.9715202092
 C        -8.7039161662       -6.6812593982       -3.2816336435
 O        -7.8024263815       -6.3189967548       -3.9928101138
 C        -9.6997759838       -7.7030666203       -3.6828197524
 C       -10.1823242014       -7.5095184957       -5.1442504736
 O        -9.6822738676       -6.5375258035       -5.7097957788
 C       -11.1855855140       -8.4654603855       -5.6948806332
 C        -8.7983602725       -9.0628134839       -3.6093258145
 C       -10.9944937146       -7.6534488787       -2.7161468830
 C        -9.6843105703       -2.0910293296        1.0985677916
 C       -11.4496681938       -3.1621108986       -0.3937516840
 C       -10.5133426716        4.5031006957       -2.2316713026
 C        -8.8389297700        3.5060219645       -3.7062385726
 C        -8.7956508809       10.0468531732       -0.0417188521
 C        -6.7787832685        8.9957414627       -1.4186645778
 C        -9.4034981875       11.7788195844        4.2676070871
 C        -8.4976507423        9.9940222349        5.8030824447
 C       -14.8225680143        7.3955522302        3.7959494652
 C       -14.3822808467        5.9224835123        1.8397358691
 H       -15.7160717800        7.8928847413        1.0910916144
 H       -14.8654169474        8.5812778427       -0.1753790575
 H       -15.6369399196        9.7860991805        0.6239494764
 H       -11.9321066447        6.4329732224        5.2566201698
 H       -12.9392229317        7.7962592306        5.2777356463
 H        -9.9716424842        7.6687197226        4.1936348183
 H       -10.4097017767        7.8215632811        5.8637958654
 H        -6.2700340303        9.7981195039        3.8624536868
 H        -6.8746289908       11.3094967459        3.3601994039
 H        -5.2255037685       10.0753538346        1.8927029102
 H        -6.6630903089       10.9540912317        1.1766914882
 H        -6.7305216542        6.5877194089       -0.0286922773
 H        -7.3901790984        6.3141197654       -1.6066638045
 H        -9.4173715419        5.1029100082        0.0089012745
 H        -8.0826197559        4.6357239502        0.8100291455
 H        -8.3530745217        1.1675188369       -2.3846852416
 H       -10.0263568635        0.4356323142       -2.8551343383
 H       -10.1591231508        0.3381545518       -0.1335270252
 H        -8.3070064482       -0.2437608118       -0.4937745982
 H        -7.7071302663       -3.9709326252       -2.4361486437
 H        -9.5341641259       -4.0980269831       -2.6988371633
 H        -9.2860700179       -6.3672128982       -1.1318297664
 H        -7.7825220300       -6.1920654208       -1.5260585965
 H       -11.2246277398       -9.4887016060       -5.3398339463
 H       -11.1083043971       -8.4194926583       -6.7664930352
 H       -12.2449629866       -8.2000144151       -5.5126676330
 H        -9.1643269422       -9.7721269021       -4.3453591825
 H        -9.1135397936       -9.6566673289       -2.7205443757
 H        -7.7819610193       -8.8315206760       -3.8325577229
 H       -11.2711915840       -6.5571025180       -2.7829505428
 H       -10.7332062495       -7.9853640504       -1.7118135750
 H       -11.7602332903       -8.3067393675       -3.0757299571
 H       -10.1219189648       -1.0815142360        1.2361331310
 H        -8.7318612053       -1.8702417847        1.1873668462
 H       -10.1224672951       -2.6542269248        1.9104626033
 H       -11.3828227073       -4.2408793738        0.0730270138
 H       -11.8756067765       -3.1777615820       -1.3329113641
 H       -12.1017988525       -2.5156682622        0.1731348064
 H       -10.2049197884        5.6024199526       -2.3533173815
 H       -11.1824989026        4.4945638272       -1.3499047644
 H       -11.0806533089        4.4680995966       -3.2012544569
 H        -9.5108063130        4.0291814217       -4.4276918023
 H        -8.5413540812        2.5548209227       -3.9258937865
 H        -7.8478953637        4.0669684431       -3.5757781191
 H        -9.7841073809       10.0117917651       -0.5975079842
 H        -8.2343369634       11.0130615479       -0.1053123173
 H        -9.2250917473        9.9664680304        0.9636314652
 H        -6.0669833531        8.1209980415       -1.2916563136
 H        -6.2097814832        9.9533542818       -1.4431260130
 H        -7.1114903466        8.8591371255       -2.4880718045
 H        -9.6702489597       12.2498105787        5.2215484567
 H       -10.1756281182       12.1289441187        3.6369113564
 H        -8.4892842816       12.1591968478        4.0081991724
 H        -9.0825679634       10.2316217625        6.6995600777
 H        -7.7232776564       10.7256202706        5.6629039024
 H        -8.0257103690        9.0119350045        5.6480512369
 H       -14.8019077739        6.6276012983        4.5851650891
 H       -15.7890522089        7.4829810612        3.3902383630
 H       -14.6277281479        8.4120819819        4.1234920404
 H       -15.2091137958        6.0775692990        1.1086724785
 H       -14.8057868028        5.2674483710        2.5342339604
 H       -13.6057665121        5.3572368931        1.3079788430
 Na      -10.8265974134        8.4355206685        1.9016396566
