117

 C       -15.0011907924        8.7868586499        0.6545772915
 C       -13.8083767025        8.3036219362        1.4759303755
 O       -12.8388760878        9.0855926041        1.3748267460
 C       -13.8779371283        7.2630348434        2.5220786561
 C       -12.4590590284        6.9440554105        3.2591375438
 O       -11.5833507836        6.5274727171        2.5363906507
 C       -12.1775043696        7.3272563212        4.7002793891
 C       -10.7995811691        8.0420920840        4.7593680013
 C       -10.7462379628        9.5982529068        4.5296495559
 O       -11.7357583116       10.2816884773        4.4924852410
 C        -9.2275108841       10.3261347411        4.5385046353
 C        -8.3116353749        9.5365042689        3.4381810968
 O        -8.6083816995        8.4835476713        2.8990910347
 C        -6.8748626529       10.0613818529        3.3422205374
 C        -6.2892104702       10.1609768232        1.9369090455
 C        -6.7685869748        8.8868451380        1.1505792767
 O        -6.1723709752        7.8205853271        1.1844572659
 C        -7.7614817476        9.0346882418       -0.0455302363
 C        -8.3584186040        7.5778949236       -0.1128480705
 O        -9.5109037351        7.5021920182        0.2147916693
 C        -7.7535789818        6.2777258088       -0.6654203402
 C        -8.4704794946        4.9772225476       -0.3013075602
 C        -8.2188000195        3.7873005656       -1.2990375116
 O        -7.1383706921        3.2381680018       -1.4885350852
 C        -9.4408763759        3.4786393839       -2.2376873191
 C       -10.0525851766        2.0411349722       -1.8249211954
 O       -11.1513950547        2.0577482295       -1.2850951317
 C        -9.2525154749        0.7748655066       -2.0846602864
 C        -9.2966088528       -0.1424752293       -0.8699730951
 C        -9.5682981280       -1.6211729010       -1.4095255169
 O        -9.3396689636       -1.8787944820       -2.5514391543
 C        -9.9345012572       -2.6278686301       -0.2055797860
 C        -9.0390112115       -3.9071788651       -0.4863607065
 O        -8.6343445377       -4.5146735520        0.4069916960
 C        -8.7549195638       -4.5083651217       -1.8039889453
 C        -8.7532813670       -6.0257253993       -1.7819202895
 C        -8.6814489925       -6.6112157215       -3.2061443050
 O        -7.8625305344       -6.3637522106       -4.0611914866
 C        -9.7602512316       -7.7450154500       -3.5078520655
 C       -10.2830260249       -7.5206635314       -5.0549565321
 O        -9.7281595596       -6.6747124138       -5.7393880819
 C       -11.1261122436       -8.6057692647       -5.6689297127
 C        -8.9072273879       -8.9769213702       -3.6502336740
 C       -10.9973711390       -7.7398046708       -2.5611397850
 C        -9.7567255774       -1.9597800043        1.1481453729
 C       -11.4452477796       -3.1501308316       -0.1957724381
 C       -10.6412395190        4.4677120856       -2.0568499658
 C        -8.7946143840        3.4291629974       -3.7154834963
 C        -8.7230167443       10.1404939862       -0.1101685561
 C        -6.8738827346        9.0136027635       -1.3785956498
 C        -9.5306808691       11.8876115773        4.2748966235
 C        -8.5225096513       10.2855397043        5.9681612790
 C       -14.9322650893        7.5865383368        3.6423889100
 C       -14.4328866121        6.0392320370        1.7645366832
 H       -16.0158727732        8.4347563396        1.0047741462
 H       -14.9323751807        8.3866094275       -0.3589722921
 H       -14.7994685534        9.7783900710        0.3828531789
 H       -12.0736293797        6.5288503436        5.4367815109
 H       -13.0479378378        7.8661467506        5.1237899803
 H        -9.9901523944        7.5667555988        4.1902557055
 H       -10.3642846983        7.9925961942        5.7991911357
 H        -6.2186897559        9.3450693955        3.8006934272
 H        -6.7668534263       11.0034716254        3.9033509347
 H        -5.2163273980       10.1337501126        1.8396235299
 H        -6.7112559807       11.0083043399        1.4859911775
 H        -6.7547869433        6.3479792545       -0.4072999640
 H        -7.8114146668        6.3505970208       -1.7377163829
 H        -9.4459773118        5.1013829773       -0.1571279830
 H        -8.2213565993        4.6271119702        0.6734662604
 H        -8.2144675639        1.1568244618       -2.3058269208
 H        -9.8334407372        0.3962508752       -2.8838312080
 H       -10.1868385092        0.1516550960       -0.3007821968
 H        -8.3174751327       -0.2120255238       -0.3429110695
 H        -7.7030141957       -4.1476642653       -2.0739198751
 H        -9.4249754576       -4.2992500253       -2.6560675773
 H        -9.7049443905       -6.4619812969       -1.3809853559
 H        -8.1579067055       -6.6370583954       -0.9692443674
 H       -11.1804173921       -9.5630755903       -5.2422998072
 H       -10.8456151578       -8.5624173432       -6.7753997128
 H       -12.2092742245       -8.3874384392       -5.6970887342
 H        -9.4909096323       -9.6996190820       -4.2161027855
 H        -8.6203190043       -9.6066456246       -2.7963234943
 H        -8.1512827942       -8.5909364302       -4.3353896994
 H       -11.2067664621       -6.6010142843       -2.5834088911
 H       -10.7324872816       -8.0921125160       -1.5416173811
 H       -11.8276175146       -8.3143471833       -2.9968450847
 H       -10.5715780572       -1.2805358215        1.5539994953
 H        -8.8664220618       -1.2844750063        1.1725091948
 H        -9.6986217909       -2.6593930867        1.9001501857
 H       -11.3026857346       -4.0937911346        0.3290063862
 H       -12.0019399335       -3.3073739809       -1.0964222460
 H       -12.0333347607       -2.4369032362        0.3718488761
 H       -10.4957734510        5.4487426567       -2.4736240612
 H       -10.9957574127        4.5636799861       -1.0636252599
 H       -11.5165250079        4.2109174895       -2.7437280057
 H        -9.6437854030        3.3266090689       -4.3930613290
 H        -8.0707137095        2.5589750630       -3.6991762998
 H        -8.2005448825        4.3768987117       -3.8868424121
 H        -9.6986403445        9.8879911343       -0.6229000045
 H        -8.2015992655       10.9714179066       -0.5139667368
 H        -9.1257653430       10.4164391104        0.8827005344
 H        -6.1996326391        8.2391782006       -1.4383757890
 H        -6.3859150884        9.9871261355       -1.6157302590
 H        -7.5188720375        8.8501361898       -2.2698047049
 H        -9.7999876250       12.1458200340        5.2109839519
 H       -10.4177930030       12.2394460046        3.7524861345
 H        -8.7282854116       12.5110630422        4.0234593264
 H        -9.2434881669       10.7589164413        6.5921820651
 H        -7.6593071502       10.9919551393        5.8535659467
 H        -8.2650645501        9.3013446296        6.2136504193
 H       -14.7813059230        6.6680233541        4.3056441410
 H       -15.9097964287        7.5942140006        3.2215990440
 H       -14.8661112907        8.5633000554        4.2053613434
 H       -15.4957821033        6.2939238965        1.4293231215
 H       -14.5217896216        5.1648740851        2.3852648480
 H       -13.9012835093        5.7276304578        0.7686443949
 Na      -10.6153412766        8.4708496296        1.9073116720
