117

 C       -14.9361798256        8.7736997973        0.4764567397
 C       -13.6919758579        8.4615301844        1.4654680083
 O       -12.5745544305        8.8607659473        1.2464312498
 C       -14.0494738804        7.1586219907        2.5951233246
 C       -12.6039186430        7.0041987092        3.1228481064
 O       -11.7467126977        6.5403161089        2.3904741923
 C       -12.2285278746        7.5347193418        4.5849188369
 C       -10.7284673887        8.0139868542        4.9361844348
 C       -10.6359956618        9.5935112769        4.6191687474
 O       -11.6160039375       10.2730403568        4.5171079821
 C        -9.2828757186       10.3273053606        4.6404406368
 C        -8.2104062215        9.6243141638        3.7150312020
 O        -8.5392095645        8.6750717860        2.9869374620
 C        -6.6809324835        9.8896229923        3.6896423143
 C        -6.4021367866       10.1561000590        2.1340692386
 C        -6.5013530712        8.8772181692        1.0010181349
 O        -5.8846511901        7.8952473774        1.2476373628
 C        -7.6564338367        8.9778342977       -0.1502401123
 C        -8.4880906824        7.5927763410       -0.1206995557
 O        -9.5769732118        7.4480424097        0.3496612792
 C        -7.8062015702        6.2662044064       -0.8522105462
 C        -8.3477248311        5.0086901143       -0.2780331721
 C        -8.3146380287        3.8398970032       -1.4858450605
 O        -7.1622854068        3.5006180391       -1.6945509570
 C        -9.5046345471        3.3915356970       -2.3573548044
 C       -10.0628909125        1.9485943848       -1.9172285242
 O       -11.0831590172        1.9032425103       -1.3064636324
 C        -9.0926408535        0.8097307049       -2.1801220922
 C        -9.3410304734       -0.1299751751       -0.9687685911
 C        -9.5874938701       -1.6066509581       -1.3857333099
 O        -9.5563428519       -1.9621358251       -2.5258827644
 C        -9.9223368919       -2.5819331387       -0.1615044456
 C        -9.0200101492       -3.9584235678       -0.3161935635
 O        -8.6914993751       -4.3118991458        0.8349808747
 C        -8.7907729617       -4.5164449140       -1.7692901632
 C        -8.7921103449       -6.0505971243       -1.7086558097
 C        -8.7781641623       -6.6354545479       -3.1126813445
 O        -7.8847378523       -6.3115027109       -3.8836186380
 C        -9.8419512906       -7.7685131591       -3.5991102337
 C       -10.2231876416       -7.5780650766       -5.1064591271
 O        -9.8903282255       -6.6940019233       -5.8185476008
 C       -11.1756682712       -8.6955890857       -5.6364623820
 C        -9.0384924406       -9.1595656581       -3.5274480471
 C       -10.9840811600       -7.9756723903       -2.5471410909
 C        -9.6935645538       -2.0265477464        1.2153881621
 C       -11.3914843926       -3.0786595076       -0.2367449670
 C       -10.7023523188        4.4297885568       -2.1501448067
 C        -8.9543087607        3.3691458366       -3.7324117353
 C        -8.6434678457       10.2027472519       -0.1447909965
 C        -6.8450745552        9.1578470631       -1.4867171857
 C        -9.5964618144       11.7430767136        4.0960011241
 C        -8.6970830123       10.3731813545        5.9641473294
 C       -15.1247227389        7.8060950889        3.5389357960
 C       -14.3896934052        5.9410845878        1.7134798587
 H       -15.8517928412        8.8835806824        1.0360530913
 H       -15.1908833068        7.9654976215       -0.2685264801
 H       -14.6756540832        9.5464448628       -0.1935658431
 H       -12.4245098784        6.6512914651        5.2282707675
 H       -13.0039364363        8.1612418612        4.9671887299
 H        -9.9463190398        7.4947210865        4.3709329946
 H       -10.3199823499        7.8917600212        5.9664829502
 H        -6.0450391738        8.9959981024        3.9055050147
 H        -6.4415541104       10.7695249304        4.3148469657
 H        -5.4007897816       10.3850538645        1.8961297696
 H        -7.0434661881       11.0078527454        1.8845929751
 H        -6.7015574488        6.3669371035       -0.8149320348
 H        -8.1130056011        6.3528718053       -1.9094566228
 H        -9.4110059250        5.1627079798        0.3214563509
 H        -7.7539569507        4.6649731566        0.5263403392
 H        -8.1230722060        1.2340995347       -2.0224881056
 H        -9.4007398434        0.4678912977       -3.1617822509
 H       -10.2293880056        0.1423519659       -0.5310157854
 H        -8.4445719350       -0.0802257662       -0.3581874928
 H        -7.8644813080       -4.2431573744       -2.1569913525
 H        -9.5860405810       -4.1658033586       -2.5086206388
 H        -9.4666918300       -6.5997426770       -1.0970348918
 H        -7.8499138429       -6.3661179182       -1.1119361708
 H       -11.3740159735       -9.5443850660       -4.9390919280
 H       -10.9612716708       -8.9797471770       -6.6604631293
 H       -12.2024570799       -8.3133983199       -5.7256170183
 H        -9.6765857117      -10.0552588223       -3.3498555731
 H        -8.2999913515       -9.1586678095       -2.7381170996
 H        -8.4922005016       -9.1786184188       -4.4975336087
 H       -11.5135136728       -7.1163667435       -2.2858843890
 H       -10.3802585921       -8.3478406985       -1.6603607131
 H       -11.6376429220       -8.8141056435       -2.9914945546
 H       -10.4943663257       -1.7304025577        1.8326064342
 H        -8.8651902907       -1.1856145111        1.3688832427
 H        -9.3668505242       -2.9648766268        1.8202613908
 H       -11.4302623351       -3.8047558201        0.4515515676
 H       -11.6847332375       -3.6108143179       -1.2181528149
 H       -12.0767232656       -2.2310193299       -0.1376323147
 H       -10.5434797432        5.3776106865       -2.5267231963
 H       -10.9791487995        4.4563112633       -1.0831065319
 H       -11.6005165779        4.2436236177       -2.6297521091
 H        -9.6411069354        2.6433648117       -4.1741195697
 H        -7.8426369060        3.0338583928       -3.6859442557
 H        -9.0846945347        4.3088832305       -4.1885182013
 H        -9.5191869988        9.8040408753       -0.5389290111
 H        -8.3326562833       11.0609592001       -0.7208615764
 H        -8.9966655099       10.5538367246        0.8350119793
 H        -6.0095965219        8.5789264377       -1.8071348623
 H        -6.5466472231       10.1653164599       -1.4671937856
 H        -7.5072490190        9.1461235545       -2.2794162369
 H       -10.1669416121       12.3161149777        4.8591531596
 H       -10.2133801839       11.8870900077        3.2308130388
 H        -8.6076332229       12.3130438587        3.9332722151
 H        -9.4307982572       10.9291498143        6.5129296456
 H        -7.7820102859       10.9344540911        5.9132288663
 H        -8.6908506917        9.3583150315        6.3275616541
 H       -15.3433130370        7.1095701371        4.3724503827
 H       -16.0495941172        8.0110201807        2.8653685120
 H       -14.8357253023        8.7980265655        3.9775853498
 H       -15.4672730120        5.9206716979        1.5164499988
 H       -14.0796010438        4.8329638252        2.0680982418
 H       -13.9952770928        6.0749022338        0.7224642998
 Na      -10.4673876171        8.5494998625        1.8383969865
