117

 C       -14.8622702750        8.8778341725        0.1350833037
 C       -13.7241634119        8.3869361749        1.0304949145
 O       -12.6552477387        8.8967908243        0.6384914498
 C       -13.9453292833        7.4269244551        2.2363548975
 C       -12.6213795842        7.2376960131        3.1840001661
 O       -11.5970406373        6.7805752613        2.7710201359
 C       -12.5300564221        7.7122577570        4.7245033786
 C       -10.9595141036        8.0537312457        5.0219010637
 C       -10.6598304670        9.5766517093        4.6440253497
 O       -11.5535631652       10.3236904774        4.3707293571
 C        -9.1761478427       10.1019104135        4.6065490974
 C        -8.1633784781        9.2498667818        3.7871915299
 O        -8.6122017703        8.3838297217        3.0359843838
 C        -6.7178022973        9.7798612842        3.7101374222
 C        -6.3333770214       10.1686088221        2.2676552906
 C        -6.3456146910        8.9809284072        1.2477197153
 O        -5.4482361777        8.1714151223        1.1983312515
 C        -7.3343534673        8.9808963668        0.0120939552
 C        -8.2675547665        7.6239161961       -0.1319066448
 O        -9.3581345074        7.4738448892        0.3374310941
 C        -7.7054735992        6.5475889884       -1.1193710881
 C        -8.4638455915        5.2566278603       -0.8797950822
 C        -8.3207303658        4.0220042312       -2.0899782929
 O        -7.1933071343        3.5885327956       -2.3938923077
 C        -9.5529767793        3.4503674011       -2.7012657954
 C        -9.9770995059        1.9532823713       -1.9170371616
 O       -11.0532302348        1.9747340313       -1.3355440034
 C        -9.0001285905        0.8853894199       -2.0509110424
 C        -8.8641410428       -0.1485239796       -0.8631025231
 C        -9.6063427227       -1.5950813864       -1.1619731533
 O        -9.8806674068       -1.8066256493       -2.2773707875
 C        -9.9684404892       -2.6108403071       -0.0870823011
 C        -9.0773165696       -3.9946313148       -0.1260233836
 O        -8.5213802571       -4.4330413192        0.8905175432
 C        -9.0628170434       -4.8759367407       -1.4521594493
 C        -9.0771144291       -6.4068768594       -1.4408558262
 C        -9.0188864349       -6.8158338704       -2.9630727758
 O        -8.1336180959       -6.3182933999       -3.6439209637
 C        -9.8489693102       -8.0710770944       -3.4346322304
 C       -10.3650165035       -7.7441148478       -4.8573418421
 O       -10.1028233363       -6.6943894966       -5.3367437741
 C       -11.1955383962       -8.9682808240       -5.4428683785
 C        -8.8302476221       -9.3356569037       -3.3809316839
 C       -11.1473349551       -8.1471582263       -2.5467049944
 C        -9.8184102078       -2.0665899382        1.3412866738
 C       -11.4867716473       -3.0194607896       -0.0992656693
 C       -10.7151276934        4.3546759607       -2.3313366984
 C        -9.3503462759        3.3050715516       -4.2195619760
 C        -8.4383996605       10.1149637864        0.0391581242
 C        -6.4760107575        9.2406313391       -1.2627068944
 C        -9.1371917688       11.4929420028        3.9878645371
 C        -8.9409493381       10.6179012271        6.2071477992
 C       -15.0081181322        8.0991124545        3.1288655682
 C       -14.4403775328        6.0179952282        1.8110680496
 H       -14.9068792474        9.9970313650       -0.0036452160
 H       -15.8816049258        8.4327066645        0.3760139907
 H       -14.6085426485        8.3210300287       -0.7077135252
 H       -12.8315439748        6.7834553440        5.2320646224
 H       -13.2853487384        8.3659160338        5.1895138315
 H       -10.1747423017        7.4319029965        4.6229968566
 H       -10.6021811263        7.9834435044        6.0645674284
 H        -6.0748545434        8.9790236216        3.9745344792
 H        -6.5658915568       10.7439556303        4.2127871573
 H        -5.3809387292       10.6490316120        2.2115267719
 H        -7.0713801209       10.9380203416        1.9817767670
 H        -6.6761963182        6.5137818612       -1.1509464559
 H        -8.0541310869        7.0710814346       -2.0085636095
 H        -9.5312474192        5.5230378492       -0.6830576039
 H        -8.1093012791        4.8306377424       -0.0707114219
 H        -7.9466863359        1.3105122527       -2.1437826359
 H        -9.3491726680        0.1885464088       -2.8134179556
 H        -9.3160061978        0.1928044469        0.0708315695
 H        -7.7555830105       -0.4734923471       -0.9730015327
 H        -8.0555627836       -4.5691472645       -1.8413528805
 H        -9.7113293735       -4.5131112493       -2.2984345541
 H        -9.8604199835       -6.9381442669       -0.8294171684
 H        -8.0119910926       -6.6710983935       -0.9305311550
 H       -11.4104222559       -9.8207963851       -4.8105763340
 H       -10.6418208362       -9.2937223075       -6.3723068748
 H       -12.1418022678       -8.6498916066       -5.8525568795
 H        -8.9986479966       -9.9121909393       -2.4581708555
 H        -7.8337708978       -9.0101486506       -3.6438627583
 H        -8.9971634455      -10.0463613235       -4.2333619834
 H       -11.6665214729       -7.2141723611       -2.5871149158
 H       -10.7595651440       -8.1412601540       -1.5692193602
 H       -11.8393487475       -8.9347173637       -2.9067270843
 H       -10.2572919521       -1.1186097776        1.3799652427
 H        -8.7496529803       -2.1250247886        1.7418077194
 H       -10.3496581924       -2.4538953969        2.1769201707
 H       -11.7501513738       -3.5132094087        0.7290172036
 H       -11.7378594558       -3.7646980224       -0.8857092159
 H       -11.9653009213       -2.0109877723       -0.2409798501
 H       -10.4931236904        5.4296817004       -2.5460040559
 H       -10.8831380788        4.2181294290       -1.2308136801
 H       -11.7998528789        4.2954791613       -2.5670687440
 H        -9.6276549234        2.3384945837       -4.5744428741
 H        -8.1866679669        3.3482883497       -4.2726558072
 H        -9.8990855345        4.0731133682       -4.6752420597
 H        -9.0711295591       10.2252775148       -0.8865232428
 H        -8.0351195879       11.1502405288        0.1373368400
 H        -9.0051846142       10.0960728508        1.0358419957
 H        -5.5762415446        8.5948082232       -1.3041981101
 H        -5.8554952238       10.2146937433       -1.2577314307
 H        -7.0457701326        9.1227567227       -2.2460451712
 H       -10.0460974132       11.9473908951        4.1399503016
 H        -9.1860294590       11.2888580784        2.9473071855
 H        -8.3418056664       12.1817517680        4.1402629070
 H        -9.7645453681       11.2502043188        6.4941184191
 H        -7.9924694818       11.1970492586        6.0679152573
 H        -8.9919368866        9.8059943204        6.8666202460
 H       -15.1827355762        7.6574220032        4.0754823828
 H       -15.9137206331        8.2362344106        2.5543421738
 H       -14.6174501208        9.0393163908        3.4028543962
 H       -15.2030093744        5.9507603833        1.0898595259
 H       -14.7587927697        5.4153135454        2.7814197043
 H       -13.6400976003        5.4356636445        1.4114650848
 Na      -10.6973015481        8.5958332306        1.9095923395
