117

 C       -14.9887338373        8.7023909528        0.0669364467
 C       -13.6379590361        8.3565701552        0.9353656385
 O       -12.6099837209        8.8736693532        0.6427646091
 C       -13.8744940798        7.5815383911        2.3294851031
 C       -12.5630084196        7.3627249639        3.2088767325
 O       -11.6573814305        6.7952640486        2.6522324293
 C       -12.4906058658        7.7929392437        4.6839456524
 C       -11.1133772124        8.2389818270        5.1871633038
 C       -10.7406826881        9.5620030528        4.5765205783
 O       -11.6172212365       10.3239862377        4.1874465038
 C        -9.2266969533       10.1770444367        4.5712388117
 C        -8.2111577133        9.2194308147        3.8455736851
 O        -8.5437797212        8.1896909012        3.1973905748
 C        -6.7635010474        9.5897148688        3.7498473353
 C        -6.3311194512       10.0541148895        2.3314803280
 C        -6.3469996206        8.9809442544        1.3258736724
 O        -5.3801786409        8.1847450483        1.3020519808
 C        -7.3322553197        8.9788444077       -0.0247947446
 C        -8.1785480261        7.7707317827       -0.1864847126
 O        -9.2083379223        7.5496086586        0.4546312296
 C        -7.5946007449        6.5335734977       -1.1467963499
 C        -8.3652049704        5.2315213833       -1.1507157317
 C        -8.2463875816        4.0808470950       -2.1720769912
 O        -7.2288320865        3.6822631019       -2.5756294114
 C        -9.6631073330        3.4287151188       -2.7208931167
 C        -9.9721289714        2.0449882863       -1.9092375003
 O       -10.9402981485        1.8993006558       -1.2465261065
 C        -8.8784507919        0.8206588860       -2.0988333447
 C        -8.7925670976       -0.1835472684       -0.8546727300
 C        -9.6692102127       -1.4535008620       -1.1380963548
 O        -9.8396969585       -1.6907965907       -2.3406484895
 C       -10.0627346260       -2.5759153941        0.0535883973
 C        -9.2358326760       -3.9691759507       -0.1476786846
 O        -8.5458078976       -4.3495759277        0.8173404628
 C        -9.1100506685       -4.6813644244       -1.4647747779
 C        -9.1519589419       -6.2558404942       -1.3581254253
 C        -8.9901761869       -6.9474006875       -2.7181974975
 O        -8.2978433051       -6.4056161929       -3.5686788641
 C        -9.9059806208       -8.0414154565       -3.2017134659
 C       -10.3469748898       -7.7756237877       -4.8072462262
 O       -10.2535581876       -6.6846965137       -5.3436010833
 C       -10.9960069000       -8.9506307949       -5.4441409096
 C        -8.9631215450       -9.3185441354       -3.2366151010
 C       -11.1428428908       -8.4520603972       -2.4009621802
 C        -9.6481166155       -2.2095165379        1.5266095051
 C       -11.5469050120       -3.1396638481       -0.0956184631
 C       -10.8867672489        4.3007822449       -2.5199430072
 C        -9.4527972176        3.1741989766       -4.3588533300
 C        -8.3206939975       10.2374484169       -0.0107561317
 C        -6.3528264206        9.2977719886       -1.1718762870
 C        -9.1948391877       11.6453676725        3.8334155568
 C        -8.8121145416       10.2874992493        6.0778803271
 C       -14.9748473479        8.3135512632        3.0584354217
 C       -14.3100233748        6.1952836753        1.7950653317
 H       -14.8328697273        9.6760617637       -0.3748346492
 H       -15.7734490190        8.7569502206        0.8331594495
 H       -15.4035981250        7.9209069176       -0.6413275042
 H       -12.8825378487        6.9422659697        5.2912156603
 H       -13.2635420456        8.4970598334        4.9328915803
 H       -10.2488177943        7.5980174923        5.2860741874
 H       -11.1167087683        8.5306933774        6.2590060815
 H        -6.1896910906        8.6840652878        3.9387532868
 H        -6.5175642790       10.5130840831        4.2035122851
 H        -5.3386855079       10.3856532801        2.4608432615
 H        -6.8160966823       10.9415008805        2.0416923632
 H        -6.6125126323        6.4036222326       -0.6748315049
 H        -7.4361893228        6.9429383365       -2.0705221417
 H        -9.4752925745        5.5084991367       -1.0607834663
 H        -8.0269857475        4.6344198264       -0.2559387676
 H        -7.8709721636        1.1521729784       -2.1564527649
 H        -9.1518428505        0.0627924934       -2.8624753820
 H        -9.1283281445        0.1994149606        0.0429375091
 H        -7.8077965300       -0.7300655995       -0.9149344022
 H        -8.4317786976       -4.1382671202       -2.0773631299
 H       -10.1447775902       -4.5183581579       -2.0166415414
 H       -10.1679665833       -6.4759030625       -0.8662424941
 H        -8.3479939089       -6.6337478056       -0.6271196616
 H       -11.1492158322       -9.9512670781       -4.8682416953
 H       -10.5221527813       -9.1777164442       -6.3753402173
 H       -11.9808782161       -8.5723067982       -5.7806705832
 H        -8.7484234222       -9.6350333169       -2.2308025152
 H        -8.2494128584       -9.2693912221       -4.0015577005
 H        -9.5923921451      -10.1512890713       -3.5972943239
 H       -11.7000476574       -7.6512986772       -2.0261416749
 H       -10.6791000739       -8.9203057471       -1.4909588627
 H       -11.7533063150       -9.0943081390       -3.1137706667
 H       -10.1474563582       -1.3629683157        1.9036296607
 H        -8.5659199551       -2.2336575018        1.6241287221
 H        -9.9702788874       -2.8729257214        2.4625723793
 H       -11.8003476904       -4.1307791391        0.2717859413
 H       -11.5905964221       -3.2760449352       -1.1861623010
 H       -12.2160876696       -2.3774487625        0.2059267916
 H       -10.6888962952        5.2887625306       -2.9474723044
 H       -11.1692005487        4.4143954539       -1.4264951391
 H       -11.8473078544        4.0117749010       -2.7759583044
 H       -10.1533561931        2.3249112879       -4.6771110298
 H        -8.4128251079        2.8567415919       -4.5099524700
 H        -9.7987784730        4.1159747063       -4.7715601534
 H        -8.9637093336       10.3489415011       -0.8196041975
 H        -7.8430761683       11.2547681371        0.0290664253
 H        -8.7712804194       10.2588908585        0.9908851474
 H        -5.2973838508        8.9102876016       -0.9973277439
 H        -6.0322030861       10.2866371983       -0.9748279047
 H        -6.5710431025        9.2176639083       -2.2050385392
 H        -9.8409671482       12.4752089276        4.1497368193
 H        -9.5215803772       11.3695988013        2.9181645876
 H        -8.2368159168       12.0858301757        3.6671164459
 H        -9.4699532352       10.9793343673        6.5653741264
 H        -7.8127185459       10.5670496358        6.1081132324
 H        -9.0577316350        9.3281827437        6.5362522444
 H       -15.0913761218        8.0100442785        4.0802847944
 H       -15.9958056884        8.2794518746        2.5486901448
 H       -14.6335402014        9.3051357676        3.2419257065
 H       -14.6173124457        6.1891524987        0.6736195836
 H       -15.1425549389        5.6802532134        2.3527076453
 H       -13.4735827884        5.4489057680        1.7846379983
 Na      -10.7603643714        8.5316003165        1.8077598346
