117

 C       -14.8355385762        8.5567442813       -0.0306193801
 C       -13.6393824923        8.3496960329        0.8654077443
 O       -12.5644704369        8.9140427946        0.6610036761
 C       -13.8898220544        7.7056708422        2.3297939021
 C       -12.6814912528        7.5920397960        3.1866573110
 O       -11.7150964551        6.9767154882        2.7306848746
 C       -12.6659093922        7.9729942201        4.7033625453
 C       -11.3096398421        8.4559492678        5.1361495799
 C       -10.7433284937        9.7184339466        4.2517673452
 O       -11.5749146151       10.2802636540        3.5397743223
 C        -9.2693709508       10.1483369926        4.5504863099
 C        -8.4052882379        8.9864005117        3.7760238785
 O        -8.8645790357        7.9781976850        3.3394660655
 C        -6.9443852717        9.2945422804        3.6856387167
 C        -6.2967698950        9.9661554508        2.3969195210
 C        -6.2408086095        8.9423012522        1.2794686613
 O        -5.6117219513        7.9748567738        1.4678604077
 C        -7.0987228445        9.0495747906       -0.1270591731
 C        -7.8005022185        7.5920844020       -0.2317591860
 O        -8.8885183871        7.5308016746        0.2960068805
 C        -7.3207823541        6.4553951854       -1.1367897306
 C        -8.5199061969        5.3971321703       -1.1444605875
 C        -8.4611560698        4.2219771472       -2.2590207040
 O        -7.3840764782        4.0702258700       -2.8628583566
 C        -9.7047026946        3.2657466415       -2.8584885826
 C        -9.6888303267        2.0146619433       -1.8293926886
 O       -10.6803940573        1.9566356935       -1.0361463263
 C        -8.7230692195        0.8887251190       -1.9309005422
 C        -8.9648463188       -0.1165639143       -0.7792958378
 C        -9.6828114477       -1.4908238785       -1.1226042247
 O       -10.0736426514       -1.7574930380       -2.2023758412
 C        -9.8753197173       -2.4680059327        0.0656239658
 C        -9.1227052340       -3.7918093393       -0.2498779282
 O        -8.4575644271       -4.3725462770        0.5640814938
 C        -9.4341296332       -4.5129911777       -1.6273611486
 C        -9.5488873595       -6.0865997483       -1.4242170483
 C        -9.2418278104       -6.8553212392       -2.6541038492
 O        -8.2426099611       -6.5348867162       -3.2582578201
 C       -10.0035403549       -8.2438280528       -3.0824078909
 C       -10.4642738511       -7.9099969306       -4.5213021812
 O       -10.4750526009       -6.7553431465       -4.8129269223
 C       -10.8325917225       -9.1310480140       -5.5799589751
 C        -8.9310009080       -9.3522448693       -3.1405455346
 C       -11.1827250203       -8.5167736472       -2.0974332619
 C        -9.7397078905       -1.8643928960        1.4977193064
 C       -11.4297879109       -2.7849963929       -0.0635925148
 C       -10.9647402479        4.0744157881       -2.6912461759
 C        -9.4514600283        2.7313612314       -4.2737927539
 C        -8.0922532184       10.1749969477        0.0204338170
 C        -6.0715208985        9.3302021370       -1.3093133831
 C        -9.2164806132       11.6055526052        3.9688696076
 C        -8.7962689791       10.0058984371        6.0690801999
 C       -15.0541780138        8.4264701630        3.0898171187
 C       -14.3682508157        6.3210849553        2.0974513324
 H       -14.3011295017        8.8387799724       -0.9616020259
 H       -15.4353019373        9.3630995606        0.4477845918
 H       -15.4750789473        7.7476720770       -0.1283298593
 H       -12.9863234744        7.1997896526        5.3737019748
 H       -13.4680366595        8.7250540376        4.8616411606
 H       -10.6023871957        7.6148001961        5.2038516607
 H       -11.2131013660        8.7275514504        6.1846460731
 H        -6.4369564924        8.3191529980        3.7473723113
 H        -6.6638226928       10.1334137027        4.3711828085
 H        -5.3144076612       10.3895972798        2.7538415209
 H        -6.7554994359       10.9453175141        2.0491469575
 H        -6.3723225951        6.0407912122       -0.7453976811
 H        -7.0493614760        6.9811737247       -2.1689050920
 H        -9.4305573187        5.9926372301       -1.3211154205
 H        -8.5262182725        4.8335695508       -0.2344939646
 H        -7.6311771274        1.1573166658       -1.9479021431
 H        -9.0197890467        0.4451036308       -2.8938623280
 H        -9.7298571185        0.4401227832       -0.1462004913
 H        -8.1518268351       -0.5135936183       -0.1837711516
 H        -8.6737700897       -4.2381567018       -2.4073169411
 H       -10.2859067598       -4.2196264479       -2.1195010411
 H       -10.5460840085       -6.2790207331       -1.2314014131
 H        -8.8533597520       -6.4276532378       -0.6821936074
 H       -10.6396783597      -10.0425063386       -5.0790654967
 H       -10.0788518678       -9.1374138732       -6.4339465926
 H       -11.8139381896       -9.0780267561       -6.0543764238
 H        -8.2245402976       -9.0210725138       -2.4213152542
 H        -8.6448676901       -9.5344141968       -4.1768491913
 H        -9.2141189646      -10.2762378529       -2.6859297797
 H       -11.6576791266       -7.5148146139       -1.8801673734
 H       -10.7936975887       -8.9535691523       -1.1867582131
 H       -11.8596089644       -9.1668208522       -2.6286107132
 H       -10.5926315994       -1.2403365191        1.7825773349
 H        -8.7518018866       -1.4121982418        1.6111886371
 H        -9.6903537807       -2.4585668140        2.3176319355
 H       -11.5631906066       -3.8348038228       -0.2130678130
 H       -11.8675699604       -2.2965771843       -0.9710946410
 H       -11.9594131072       -2.5670544873        0.9104202339
 H       -11.0724334674        4.9786870084       -3.2581099288
 H       -11.2304232499        4.3894369071       -1.7310716602
 H       -11.8465938284        3.4319612903       -2.8267604407
 H       -10.3588870611        2.3691632839       -4.5965031507
 H        -8.7563454295        1.8736926629       -4.2501812541
 H        -9.1932905581        3.5797897608       -4.8572905391
 H        -8.7204601961       10.3226301008       -0.8469518992
 H        -7.6428795846       11.0935598455        0.0877314641
 H        -8.5985970364       10.0819465583        0.9384935601
 H        -5.4383136822        8.5337274196       -1.4234818146
 H        -5.3615924955       10.1407343535       -1.2583612897
 H        -6.5794590157        9.5050424773       -2.2382319468
 H        -9.4286906167       12.2846063565        4.7998240118
 H        -9.8717307135       11.8788948824        3.0553669198
 H        -8.1354490678       11.9957987630        3.8191079347
 H        -9.5355406562       10.4485473285        6.7372044712
 H        -7.7510770640       10.4930145326        6.0994502684
 H        -8.7066782147        8.9519220975        6.2770525100
 H       -15.2008588561        7.8897621464        4.0712017578
 H       -16.0045884268        8.2705029601        2.6013158869
 H       -14.8756801553        9.4713991874        3.4491531762
 H       -14.3031845791        6.0819620442        1.1259843312
 H       -15.4288664459        6.1721297966        2.3467450360
 H       -13.8481442487        5.5622841665        2.6068178475
 Na      -10.3036232534        8.5334601378        1.5803231751
