117

 C       -14.5872015789        8.6430484487       -0.1081930153
 C       -13.6112590558        8.2871587954        1.0513232940
 O       -12.5107407397        8.7369971411        0.8004399092
 C       -14.0859683972        7.7027371136        2.3995571227
 C       -12.8135192469        7.6632982020        3.3342747860
 O       -11.7755780112        7.3540877000        2.7739660177
 C       -12.8905216880        8.2413960813        4.7065443135
 C       -11.4546235339        8.6826115652        5.0749674704
 C       -10.7615361417        9.6186647582        4.1088826377
 O       -11.1910984953        9.9208078078        3.0165042811
 C        -9.2556225222       10.1393678551        4.6476268062
 C        -8.3802383952        9.0223412481        3.8829225721
 O        -8.9645043249        8.1093172358        3.2679014392
 C        -6.8112616229        9.1919232616        3.7566272686
 C        -6.4836632369        9.7012310403        2.2595649471
 C        -6.2079454263        8.5605805758        1.1281581622
 O        -5.6186962439        7.5251943882        1.4461802702
 C        -6.8929704146        8.7976232899       -0.2727759171
 C        -7.7866157266        7.5091556631       -0.3433257040
 O        -8.8874151408        7.4667055050        0.1879969000
 C        -7.4612645867        6.2565851908       -1.2568270610
 C        -8.7079390113        5.4219547185       -1.4781818847
 C        -8.3794805904        4.2927720357       -2.5363677738
 O        -7.3914013193        4.4030779292       -3.1772790935
 C        -9.5119045834        3.2730694119       -2.6813819615
 C        -9.5825394752        2.2589920220       -1.4816390333
 O       -10.4737812750        2.2322215060       -0.7151746341
 C        -8.7941689962        0.9553277388       -1.7681326577
 C        -8.8349843365       -0.0544808485       -0.6336083935
 C        -9.7340186220       -1.2930134859       -1.0546111230
 O        -9.9741952254       -1.4437389474       -2.2640420329
 C       -10.1109189549       -2.4486623634       -0.0093761927
 C        -9.2179440209       -3.7353286699       -0.3549351972
 O        -8.3854788863       -3.9344032510        0.4960816590
 C        -9.4979541527       -4.4781922681       -1.5941261888
 C        -9.9896215050       -5.9267845894       -1.6060000685
 C        -9.1448549504       -6.9660889150       -2.5204908130
 O        -8.1042897083       -6.5414373433       -2.9520581628
 C        -9.8986070020       -8.2353314090       -2.9419222762
 C       -10.6469925594       -7.9368069525       -4.4257965937
 O       -11.0996002049       -6.7868226572       -4.6054556009
 C       -10.6315137422       -9.1862094971       -5.3183620457
 C        -8.8905706517       -9.4254220104       -2.8510772043
 C       -11.1763605952       -8.7072711978       -2.0490365942
 C        -9.5138013749       -1.9524786628        1.2881572222
 C       -11.6030134759       -2.6534033455        0.1333463351
 C       -10.9248367525        3.9404487611       -2.7423074941
 C        -9.1331520440        2.7199358628       -4.0805469216
 C        -7.8983845522       10.0045742181       -0.2727425102
 C        -5.7735467692        9.0615479404       -1.3122910603
 C        -8.8254137398       11.5654456472        4.0898360031
 C        -9.1488759977        9.9314340044        6.2112386708
 C       -15.2181653148        8.5667917329        2.8565816597
 C       -14.5798472433        6.2202515273        2.1678147317
 H       -14.2414227859        8.2042672360       -1.0363645636
 H       -14.6653497259        9.6850804912        0.0314102156
 H       -15.6762957732        8.2791843728        0.0501792449
 H       -13.1980013609        7.4782163808        5.4769417216
 H       -13.7021023911        8.9720003147        4.6949988872
 H       -10.7990557820        7.8261726524        5.2043200144
 H       -11.2904928573        9.0593516258        6.0907067473
 H        -6.3626964459        8.2019839006        3.6718095476
 H        -6.4317738699        9.8931430910        4.4634409831
 H        -5.5240969152       10.1691777047        2.2278261252
 H        -7.0362550591       10.5039319705        1.8817558458
 H        -6.7034555997        5.5797297843       -0.8654305423
 H        -7.1294625511        6.6400704656       -2.1266436986
 H        -9.3205980601        6.0832155085       -1.9859251336
 H        -9.1958262954        5.0519060583       -0.4395710156
 H        -7.7220550408        1.0577500354       -1.9076146059
 H        -9.1841915211        0.5799652256       -2.7845299559
 H        -9.2410089108        0.4250187788        0.2712341678
 H        -7.9181884400       -0.6417280705       -0.4049041800
 H        -8.6733585859       -4.4557311870       -2.2996895890
 H       -10.2715414368       -3.8970121476       -2.2121386375
 H       -11.0030049308       -5.8593654928       -2.1674024691
 H        -9.9583181684       -6.3993788167       -0.5734176436
 H       -10.5443203707      -10.0268762938       -4.6106242188
 H        -9.8139529069       -9.2778739022       -5.9732632846
 H       -11.5404120535       -9.2369275199       -5.9545910561
 H        -8.2663351148       -9.4844272267       -1.9371297003
 H        -8.3387124115       -9.2812723103       -3.8008921139
 H        -9.4317114402      -10.4001366045       -2.8917531060
 H       -12.0976372414       -8.4168321359       -2.5316888618
 H       -11.1049045281       -8.2896860896       -1.0215862334
 H       -11.1059454834       -9.7913514360       -1.8983304122
 H        -9.8700120050       -0.9245467833        1.6860057841
 H        -8.4599451436       -2.0012166082        1.4017878346
 H        -9.8241595481       -2.5810960624        2.1668339243
 H       -11.9109641898       -3.7597492963       -0.0042277312
 H       -12.1030322507       -2.0055135377       -0.5365509170
 H       -11.9028490881       -2.5371223240        1.1320682887
 H       -10.8653053898        4.7880432844       -3.4534270671
 H       -11.4602967918        4.5219904063       -1.9403381829
 H       -11.6544583301        3.2001423431       -3.1020344053
 H        -9.8460294063        1.8777110246       -4.3169861407
 H        -8.1462187679        2.3780361532       -4.1175133819
 H        -9.2866778751        3.6200592541       -4.7536026702
 H        -8.3830673059        9.9183037662       -1.2856673514
 H        -7.4339261862       11.0564310515       -0.3809369314
 H        -8.7024586933       10.1105131233        0.5274395946
 H        -4.9966145639        8.2950526478       -1.6478507704
 H        -5.1884360004        9.9956683569       -1.1000366934
 H        -6.2735500653        9.4356841860       -2.2825982806
 H        -9.4259598816       12.3161533001        4.5674758633
 H        -8.9125189994       11.6838101984        3.0488161580
 H        -7.9359600616       11.8455233013        4.4479760295
 H       -10.0701120764       10.3969095555        6.6184344200
 H        -8.2695623660       10.3963938715        6.5678957174
 H        -9.0184679706        8.8278072692        6.4361883306
 H       -15.8060160324        8.1009682273        3.5877213453
 H       -15.9244684729        8.6919879304        2.0508535365
 H       -14.9199792508        9.5301883239        3.1805844414
 H       -13.7890332478        5.4498938664        1.7804486419
 H       -15.3704786854        6.1661206503        1.4803263904
 H       -15.0230255260        5.8737098272        3.1764909073
 Na      -10.3319877394        8.5672864510        1.4548417830
