117

 C       -14.6493392584        8.5711772148       -0.2118615527
 C       -13.5926864582        8.3623586017        0.9184854963
 O       -12.4150831671        8.5909247319        0.7486718917
 C       -14.2282877769        7.8397535290        2.3348995439
 C       -12.9417062803        7.7928178372        3.2534051464
 O       -11.9482625465        7.1361322186        2.8932895854
 C       -12.9754277613        8.4336105249        4.6239737454
 C       -11.5741305880        8.9106781842        5.2182694311
 C       -10.6362434961        9.6526133166        4.1674111620
 O       -11.0514633832        9.9488280335        3.0393932835
 C        -9.2172446621       10.0902379940        4.5866846926
 C        -8.2330577841        9.0365609581        3.9132475156
 O        -8.7327788551        8.1754930122        3.3004250089
 C        -6.7367497707        9.1370761256        3.8143820412
 C        -6.4327126944        9.4892307527        2.3053304113
 C        -6.3276412657        8.4290344088        1.2682275448
 O        -5.7217344195        7.4752068004        1.2644271957
 C        -6.9321794156        8.6880694873       -0.2962001109
 C        -7.8409255239        7.4993893782       -0.4355319012
 O        -8.9332160383        7.4570744156        0.1113489316
 C        -7.4023549694        6.3503380549       -1.2955699226
 C        -8.6391633351        5.5886704038       -1.5457391737
 C        -8.4829476126        4.4199282840       -2.6187512349
 O        -7.4200933484        4.4071778985       -3.2719766138
 C        -9.4702750737        3.3153936622       -2.8046190133
 C        -9.5639649968        2.2489171299       -1.5778348146
 O       -10.1923818851        2.5148198658       -0.5140225934
 C        -8.6660644351        1.0029369961       -1.6939263281
 C        -8.7093607124       -0.0669607115       -0.6185602392
 C        -9.6463826585       -1.2248582140       -1.0745735049
 O       -10.0645549246       -1.4109640236       -2.1815439448
 C       -10.0834619488       -2.2726192983        0.1145920944
 C        -9.2421484635       -3.5879760944       -0.3540054336
 O        -8.3509440143       -3.9936841822        0.2896509510
 C        -9.5318660211       -4.3144334440       -1.7802864272
 C       -10.1731970818       -5.7581022611       -1.6964146562
 C        -9.2841727474       -6.7388631185       -2.4072278057
 O        -8.1180827175       -6.5888685872       -2.6343977450
 C        -9.9291450477       -8.2276494794       -2.9217625204
 C       -10.6377845764       -8.0937077562       -4.2113079742
 O       -11.3019002281       -7.0955129397       -4.4195140757
 C       -10.6297574324       -9.1776765299       -5.2797968568
 C        -8.9019264044       -9.3726267942       -2.8667899455
 C       -11.0918635733       -8.7568780669       -1.9423044334
 C        -9.5775876623       -2.0117254825        1.5315088032
 C       -11.5832183952       -2.5900771353        0.0474758206
 C       -10.8443481045        3.9570536740       -2.9476242224
 C        -9.1841507854        2.5123434127       -4.0869116906
 C        -7.7431739052        9.8938836200       -0.4867826621
 C        -5.6953363565        8.6553303936       -1.2187958637
 C        -8.8401503908       11.4095066445        4.1317660330
 C        -9.0844585953        9.9005688882        6.2325690065
 C       -15.3790277799        8.6155640684        2.8149413315
 C       -14.6446256550        6.2824448698        2.1688929214
 H       -14.5973139877        7.8643768640       -1.1003370580
 H       -14.7751428002        9.6397381004       -0.2956349943
 H       -15.5615712325        8.2872479800        0.2651960087
 H       -13.3916945640        7.6632837565        5.3086660981
 H       -13.7139622315        9.2550499355        4.6065355629
 H       -10.9435148543        8.1037738419        5.6577064582
 H       -11.6576310502        9.5090359877        6.1113608413
 H        -6.3022391266        8.1628157409        4.0355536017
 H        -6.4575778864       10.0104636912        4.4019557100
 H        -5.5433004594       10.0523762139        2.0941459508
 H        -7.1578857278       10.1711463190        1.9887358551
 H        -6.7926057394        5.7683746351       -0.6240310515
 H        -6.7795854734        6.7604227761       -2.1431255259
 H        -9.3648008469        6.3761103430       -1.8861154178
 H        -8.9193491194        5.1827963513       -0.4946405303
 H        -7.6494562988        1.1530712420       -1.9288400518
 H        -9.0499347367        0.4991501655       -2.6562905796
 H        -9.1895944088        0.2388794786        0.3086671099
 H        -7.8665128467       -0.5433894311       -0.3280779088
 H        -8.4983733902       -4.5592108801       -2.2230191222
 H        -9.9315737261       -3.7698529819       -2.5378700416
 H       -11.2354612909       -5.7357789292       -2.1154834507
 H       -10.0154216950       -6.1298335869       -0.6902982802
 H       -10.8283323879      -10.1610901763       -4.9103635418
 H        -9.6568432865       -9.2657891230       -5.8438600461
 H       -11.3592377818       -8.7226908704       -5.9935956063
 H        -8.7526872108       -9.6661018064       -1.8067355308
 H        -7.9435233332       -8.9445020803       -3.3241637118
 H        -9.2563532923      -10.2584104066       -3.3830093837
 H       -12.0629114904       -8.5102167643       -2.5471126437
 H       -11.0858776713       -8.1677138200       -1.0192509411
 H       -11.0004147608       -9.7599437933       -1.6087110049
 H       -10.0957943757       -1.1692491262        2.1778242687
 H        -8.4918182956       -1.9299875922        1.7934055965
 H        -9.8572757037       -2.8636695262        2.0776358746
 H       -11.8742181561       -3.6482974578       -0.1542470350
 H       -12.0073757880       -1.8834985305       -0.5797264398
 H       -11.9949884441       -2.5171513645        1.0308985078
 H       -10.9133300306        4.9539250988       -3.3950650223
 H       -11.2866526171        4.2773165739       -2.0432078876
 H       -11.5803282192        3.2231972740       -3.4340696406
 H        -9.7107142104        1.5562510452       -3.9803967056
 H        -8.0835168195        2.3536895305       -4.2451865764
 H        -9.5710415092        3.1608971426       -4.9654529842
 H        -8.0609783500        9.9870667735       -1.6090222144
 H        -7.1054071098       10.7732068800       -0.3978979627
 H        -8.6453896631       10.0702947548        0.1320452890
 H        -5.1186372901        7.8099792409       -1.0339510908
 H        -5.0395156259        9.5560456633       -1.0788118158
 H        -5.8212013585        8.7197305131       -2.3313243596
 H        -9.5380558222       12.1350844633        4.2509108634
 H        -8.5726012061       11.4674357460        3.0610175512
 H        -8.0452738406       11.7508120213        4.7638339197
 H        -9.6242522939       10.7049244973        6.6696429117
 H        -8.0217899468        9.8503460629        6.5268403076
 H        -9.3921983567        8.9203646017        6.5051295502
 H       -15.6515053511        8.2395675222        3.8134945156
 H       -16.2582416181        8.4627851434        2.2997581892
 H       -15.1928281983        9.7199048193        2.8471984287
 H       -13.8567336323        5.5371270465        2.3124568944
 H       -14.8406174064        6.1442515854        1.0516848471
 H       -15.6491482698        5.9712548935        2.6886756255
 Na      -10.3986771073        8.5650236303        1.3615510386
