117

 C       -14.9746546214        8.4977434960       -0.3713453452
 C       -13.8068201767        8.2411407774        0.6596410726
 O       -12.6224296890        8.4575003422        0.4076313975
 C       -14.1868149084        7.8701843565        2.2069319673
 C       -13.0503001934        7.8951801134        3.3214682134
 O       -12.2177796320        7.0428778413        3.2662246002
 C       -13.0315810983        9.0269744889        4.3848623201
 C       -11.7577060247        9.1587955496        5.1910944383
 C       -10.6060298407        9.6901890933        4.3005798081
 O       -10.9400595060       10.0754791232        3.2044703215
 C        -9.1134996926        9.8965786360        4.7154165882
 C        -8.1813181501        8.8568593641        3.7559993755
 O        -8.6566553159        7.9100528436        3.0852395499
 C        -6.6404009552        9.1670167450        3.7271931341
 C        -6.2031792609        9.5615667182        2.3318073811
 C        -6.2967603566        8.4268638935        1.2117712093
 O        -5.9394458303        7.2944344299        1.7202932351
 C        -6.8067613341        8.4550169337       -0.2525467328
 C        -7.9740157240        7.4239879539       -0.5492233917
 O        -9.0850694465        7.6225604423       -0.0995395227
 C        -7.6118364883        6.2182795262       -1.4172129599
 C        -8.8444429459        5.2991871637       -1.7499122834
 C        -8.4263173047        4.3028477258       -2.8361188995
 O        -7.4493691096        4.2473949794       -3.4977041870
 C        -9.4439337536        3.1727061197       -2.9724320995
 C        -9.1962989655        2.4203473984       -1.5737725352
 O        -9.5125889098        2.9701193527       -0.5920102375
 C        -8.4709464551        1.0224040759       -1.6387343973
 C        -8.6039706728        0.1606029136       -0.3481243987
 C        -9.6507906529       -1.1028650596       -0.8327319118
 O       -10.1606799071       -1.0574933872       -1.9717094727
 C       -10.0174065810       -2.2754510123        0.0526220130
 C        -9.1662102503       -3.6554293238       -0.5390789955
 O        -8.2890199169       -4.1717201409        0.1394904978
 C        -9.7082764868       -4.2053388262       -1.9672571356
 C       -10.3897193641       -5.6258724217       -1.9689232310
 C        -9.3983514126       -6.7572326972       -2.2460746976
 O        -8.2036359598       -6.5181606735       -2.0676401422
 C       -10.0553607399       -8.1809303230       -2.6454928754
 C       -10.8315567154       -8.1578576674       -3.9943982038
 O       -11.7705042364       -7.3710761095       -4.1558834724
 C       -10.4847228542       -9.0467519572       -5.1940639569
 C        -8.8063299624       -9.0912409849       -2.7130031665
 C       -10.9422795053       -8.6156515411       -1.5302110168
 C        -9.7371721681       -2.0631936624        1.5194108580
 C       -11.5365885314       -2.6042925153       -0.1503634950
 C       -10.8551749886        3.7645765032       -3.0801054645
 C        -9.3241810973        2.3154722229       -4.3632681367
 C        -7.2041143946        9.9254712078       -0.6079251881
 C        -5.4934476683        8.3093105002       -1.1392437154
 C        -8.7505637168       11.3461491805        4.2566823590
 C        -8.6738975072        9.8403971880        6.2500043397
 C       -15.4154991491        8.8042273171        2.7049256770
 C       -14.6963143126        6.3827085893        1.9241161221
 H       -14.8583526249        7.7606256654       -1.1045049830
 H       -14.8003727711        9.5078828532       -0.6937661114
 H       -16.0516444690        8.3657234255       -0.0591735205
 H       -13.8663581144        8.8837279095        5.0901637980
 H       -13.1096049708        9.9994621218        3.8989212942
 H       -11.3215362945        8.3108795025        5.7362346228
 H       -11.9597067420        9.8716741058        6.0352287089
 H        -6.2476892123        8.1687885525        4.0266755723
 H        -6.4408986874       10.0184182308        4.3972653429
 H        -5.0851695668        9.8003080776        2.2651333634
 H        -6.7255017486       10.5656616502        2.0318531677
 H        -6.8130504114        5.6737695148       -0.7730021871
 H        -7.1437881922        6.5766960711       -2.3028612302
 H        -9.6810441948        5.8765498768       -2.0242972269
 H        -9.1153152110        4.6096876519       -0.9275458431
 H        -7.3694827274        1.1950130113       -1.8221255459
 H        -8.6138994543        0.4325538423       -2.5158560351
 H        -9.1319414145        0.6113601854        0.5000846468
 H        -7.5999538026       -0.2078200477        0.1842317412
 H        -8.9745447047       -4.1942055498       -2.7155661872
 H       -10.5354780523       -3.4260766888       -2.3293305770
 H       -11.0655280233       -5.5245400036       -2.7687912242
 H       -10.8750820377       -5.8107409134       -1.0226754028
 H       -11.0670442585      -10.0250558215       -5.0836389910
 H        -9.4792652260       -9.3407743765       -5.0860291625
 H       -10.5895185060       -8.4747483789       -6.1149178861
 H        -8.8384829022       -9.7739939850       -1.8679011880
 H        -7.9612261608       -8.4912246802       -2.5055977642
 H        -8.7756063380       -9.6965071227       -3.6165332576
 H       -11.8509936727       -8.1214291828       -1.5474047143
 H       -10.4388974792       -8.5416058824       -0.5522706724
 H       -11.0585198751       -9.7444082124       -1.6479951765
 H       -10.4590069767       -1.3997257329        1.9285486025
 H        -8.9440925583       -1.3916199356        1.6765971553
 H        -9.5596031135       -2.8999517752        2.2429118743
 H       -11.6536257951       -3.6956138652       -0.3623453460
 H       -11.9759255194       -1.8948310698       -0.8865821314
 H       -12.0812926666       -2.5000239503        0.7919405906
 H       -10.9883240959        4.6518335119       -3.6564267538
 H       -11.0850890797        4.2832340626       -2.1422884023
 H       -11.6109539000        3.1454843256       -3.4198796904
 H       -10.1193171827        1.5480515213       -4.4024263284
 H        -8.3719567042        1.9105956330       -4.3559218460
 H        -9.3037481614        2.9509679914       -5.2141836017
 H        -7.1869499028       10.2188023579       -1.5862599999
 H        -6.5090466501       10.5163404717       -0.0181945840
 H        -8.2023403914       10.1415054063       -0.2858999169
 H        -4.9720987373        7.3402172414       -1.0868469990
 H        -4.8890935565        9.0897458899       -0.8132146622
 H        -5.6036577784        8.3706056514       -2.1984060994
 H        -9.5680463978       12.1689491891        4.4754304761
 H        -8.8938566667       11.2361259720        3.1476452546
 H        -7.7781475312       11.8329777685        4.4733270262
 H        -9.0333888727       10.7563060217        6.7585714301
 H        -7.6137782947        9.7544820172        6.3698620473
 H        -8.9505696209        8.8721095150        6.7406996999
 H       -15.7226149857        8.7308021264        3.7489500037
 H       -16.4115153826        8.5697274309        2.1404233705
 H       -15.2399209465        9.8384635811        2.4100680105
 H       -14.5208515594        5.7469101122        2.7976302238
 H       -14.2272765479        5.9018471295        1.1655249946
 H       -15.7301287335        6.4291494027        1.7605187584
 Na      -10.4178087132        8.4090383689        1.5652976489
