117

 C       -14.6769102036        8.4008384770       -0.5339970482
 C       -13.7854384853        8.4239797092        0.7128063078
 O       -12.5924305371        8.3692969286        0.4729346645
 C       -14.4043314949        8.0295399009        2.1982799458
 C       -13.1261740309        8.2344125022        3.1243162540
 O       -12.3258946246        7.3442240487        3.1679706599
 C       -12.8987264964        9.4388899804        4.1953507357
 C       -11.5559953671        9.5172837529        4.8312917488
 C       -10.4491849597        9.9551389678        3.9348485722
 O       -10.6173371920       10.1949580957        2.7542313382
 C        -9.0276506568        9.8539675276        4.5601071581
 C        -8.1761509707        8.9564941199        3.6872678743
 O        -8.6392272010        8.1289395447        2.8710157805
 C        -6.6639574011        8.9333041090        3.7927771738
 C        -6.2141830457        9.2935008561        2.3407586093
 C        -6.5815547786        8.0989595243        1.3961579202
 O        -6.4099423383        6.8810397131        1.6553063301
 C        -6.5310632704        8.2554144418       -0.1979406339
 C        -7.8325809451        7.4868119114       -0.7330453855
 O        -8.9356639848        7.8067539884       -0.3056264343
 C        -7.6156015813        6.3330551368       -1.7105164921
 C        -8.8735181532        5.7029986659       -2.3142110949
 C        -8.5861456953        4.3675340949       -3.0833964013
 O        -7.5327357667        4.2856135135       -3.6116907795
 C        -9.2886233371        2.9383044567       -2.8944301684
 C        -8.8051950728        2.3178830989       -1.5728007352
 O        -9.2569532639        2.7587380672       -0.5531646223
 C        -8.1645163850        0.8668916838       -1.5113457480
 C        -8.7528328334       -0.1013862680       -0.5637770444
 C        -9.9031786456       -1.0751633298       -0.9744845663
 O       -10.5658610207       -0.9181226243       -1.9915339351
 C       -10.1377431442       -2.2887782859       -0.1383147776
 C        -9.4205184857       -3.4769903006       -0.8997985483
 O        -8.5683560214       -4.1562280091       -0.3471402812
 C        -9.7126795137       -3.8723897905       -2.3477975136
 C       -10.4760654488       -5.3170901888       -2.2700318984
 C        -9.3987854170       -6.5014003237       -2.0710952551
 O        -8.2586398054       -6.4423203156       -1.6443914414
 C        -9.9986663007       -8.0219970707       -2.1373095539
 C       -10.9072856213       -8.1191836597       -3.4422841630
 O       -12.0323137748       -7.6195886642       -3.4229164690
 C       -10.3403130979       -8.4376441862       -4.8212059851
 C        -8.7932968886       -8.8766131713       -2.2348489090
 C       -10.9971551105       -8.4609493957       -0.9480972275
 C        -9.5939263401       -2.1006817483        1.2890325889
 C       -11.6419126454       -2.3574070263       -0.0124294548
 C       -10.7433419186        3.0818451159       -2.7193948621
 C        -8.9931769389        2.0682706555       -4.1699275879
 C        -6.7740083727        9.7137854909       -0.6359925873
 C        -5.1236021280        7.8065824298       -0.6674818163
 C        -8.6132099727       11.3715184317        4.5938846739
 C        -8.8977398988        9.2922993081        5.8638000368
 C       -15.6559907562        8.9939482340        2.5823143941
 C       -14.7834896696        6.4599092120        2.3748972977
 H       -14.2062792103        7.7128435333       -1.1731395429
 H       -14.9319483077        9.4076166473       -0.9566629622
 H       -15.5859606196        7.8100732358       -0.3005365550
 H       -13.5628298095        9.4183339953        5.0451808285
 H       -12.9824484159       10.3221023130        3.5182688559
 H       -11.3718144225        8.5279107829        5.2350763304
 H       -11.4802276705       10.1813337235        5.7146318295
 H        -6.3056876032        7.9385563239        4.0125875649
 H        -6.2442426700        9.6904064941        4.4985716925
 H        -5.1663060982        9.2589233869        2.4616862852
 H        -6.5508790669       10.2268774334        1.8828611205
 H        -7.1121336796        5.5041401850       -1.0710619243
 H        -6.8637904923        6.6500057193       -2.5298649582
 H        -9.4308963103        6.2943181831       -3.1332036446
 H        -9.5592204069        5.4562137822       -1.5631610735
 H        -7.0655182468        0.9650951656       -1.2888860389
 H        -8.0033590140        0.4621783470       -2.4607443892
 H        -8.9995878673        0.4544927871        0.2641063229
 H        -8.0010036969       -0.7373256551       -0.0091156398
 H        -8.7957240384       -4.0847381706       -2.8322533444
 H       -10.2503413788       -3.0298069737       -2.8645677831
 H       -11.1027222402       -5.4811457562       -3.0954986996
 H       -11.0745289458       -5.1943625175       -1.3399721110
 H        -9.9136882068       -9.4793368159       -4.8440141811
 H        -9.4937668767       -7.7377380124       -4.8581265543
 H       -11.0873921562       -8.2112335935       -5.5697100569
 H        -8.1289213595       -8.9501761798       -1.3769972607
 H        -8.1034569013       -8.3425055944       -2.8616566050
 H        -9.1668706954       -9.8048988423       -2.7201131662
 H       -11.7819845459       -7.7813401752       -0.7310777300
 H       -10.4878723886       -8.6889591759        0.0346978128
 H       -11.5833730900       -9.3664190281       -1.3423752987
 H        -9.4048781073       -1.2164235835        1.7440420661
 H        -8.5393704581       -2.4523643342        1.4059671284
 H       -10.2462483859       -2.8134635263        1.9120578006
 H       -11.9309881857       -2.8754763789        0.8450321277
 H       -11.9863172108       -2.9254027651       -0.8826214938
 H       -12.0751228236       -1.3698636228       -0.1222360525
 H       -11.3306211526        3.2983087941       -3.5893481433
 H       -11.0515424540        3.8794530028       -1.9785801659
 H       -11.2191570747        2.1277500299       -2.5448076991
 H        -9.6302348558        1.1072131285       -4.1202742239
 H        -7.9218603439        1.9986363870       -4.4514926611
 H        -9.4570193847        2.5821888762       -5.0254091556
 H        -7.2009243331        9.6971662124       -1.6285476475
 H        -5.7948714737       10.2747013328       -0.6791451864
 H        -7.5815657022       10.2233146060       -0.0204782272
 H        -4.8158331899        6.7170426464       -0.4587677367
 H        -4.3937427859        8.4973720650       -0.2838749966
 H        -5.1015482257        7.7666027982       -1.7338153763
 H        -8.8152751617       11.7754036724        5.6257707502
 H        -9.2035515745       11.9594455076        3.9574485822
 H        -7.6206943699       11.5196606642        4.2317619105
 H        -9.6440045466        9.7206824920        6.5014962057
 H        -7.9930961268        9.6698523363        6.3628824892
 H        -8.8405032385        8.1931097592        5.9037637434
 H       -15.8413497879        8.6761004861        3.5878577421
 H       -16.5822740640        8.9665086651        1.9229648226
 H       -15.4518868530       10.0187438132        2.6653651358
 H       -15.9059553169        6.4236517398        2.7296340811
 H       -14.1363708098        5.8733610267        3.0399085094
 H       -14.7992182061        6.0099428440        1.3474116456
 Na      -10.8080682951        7.8387661673        1.6997404190
