117

 C       -14.7949883414        8.3460282843       -0.3256079462
 C       -13.7353301704        8.1806350409        0.7885958054
 O       -12.5778308246        8.3297634875        0.5041166620
 C       -14.3431182766        8.1395239914        2.2817279715
 C       -13.1603391494        8.4450793087        3.2275008328
 O       -12.3287079976        7.5182403843        3.2606215678
 C       -13.1148956486        9.8637164462        3.8084443828
 C       -11.8358055250       10.0575164668        4.6840950317
 C       -10.5786242122       10.0500964109        3.8309369949
 O       -10.5942656039       10.2586862996        2.6251226004
 C        -9.0933345432        9.7978312893        4.4950295091
 C        -8.2023540097        8.9812525256        3.5437709523
 O        -8.7083396305        8.3288696628        2.6121995574
 C        -6.7087001109        8.8498442092        3.6982296379
 C        -5.9255047922        8.7551060465        2.4148376658
 C        -6.4841940487        7.6982735125        1.3046975304
 O        -6.9503498719        6.6732655470        1.6806765443
 C        -6.4038695950        7.9627078420       -0.2844012167
 C        -7.6944832373        7.2255047068       -0.7550650385
 O        -8.7880397712        7.6419626546       -0.3592337986
 C        -7.6439950872        6.3044193692       -1.8719529662
 C        -8.8372765984        5.4723148222       -2.0841509487
 C        -8.4939072567        4.2492876386       -2.9511840387
 O        -7.6191318102        4.3125459939       -3.7735887980
 C        -9.2130292836        2.8172674889       -2.8759185335
 C        -8.6371469167        2.1031396250       -1.5790848831
 O        -8.8532637261        2.6875628914       -0.4701016262
 C        -7.8357910349        0.7653290794       -1.6071777137
 C        -8.4150132734       -0.3563737148       -0.6303917514
 C        -9.7904936658       -0.9030148276       -1.0872614036
 O       -10.4077090207       -0.4557365650       -2.0327966044
 C       -10.3287961610       -2.1471790338       -0.0928182441
 C        -9.5881830832       -3.4014374909       -0.8673473012
 O        -8.5512909819       -3.8154444452       -0.3457967566
 C       -10.1131172822       -3.7722802350       -2.2885089964
 C       -10.4584018140       -5.3085144473       -2.5074713520
 C        -9.5283509435       -6.3863611260       -2.0406424356
 O        -8.4220676711       -6.0421950774       -1.6759439159
 C       -10.0503419107       -7.9398610324       -1.7636220497
 C       -10.9586814916       -8.0314135956       -3.0177870935
 O       -12.1419628675       -7.9404104168       -2.8401285869
 C       -10.4080059884       -7.8371879331       -4.4716798031
 C        -8.8529205797       -8.9716208235       -1.7413744312
 C       -10.9178864338       -7.8090407960       -0.4435043312
 C        -9.7939297071       -2.0883317275        1.3322721063
 C       -11.7996005298       -2.5202546709       -0.2468408391
 C       -10.6972537536        3.1409400699       -2.7610632474
 C        -8.9001277238        1.9904086801       -4.1627118369
 C        -6.5673300719        9.4910459832       -0.6427045633
 C        -5.3020633636        7.1308657427       -0.9829366383
 C        -8.3428181818       11.1488961128        4.7545600447
 C        -9.2906244676        8.9517120377        5.7316193093
 C       -15.4339076659        9.1944466972        2.3135800463
 C       -15.0744357384        6.7376181904        2.3329652453
 H       -14.2762764494        8.4786041356       -1.2852301225
 H       -15.4740798600        9.2363080313       -0.1543962724
 H       -15.3212889552        7.4288390290       -0.4177802532
 H       -14.0083131161       10.0729436131        4.3711534197
 H       -12.8683891608       10.5338796506        2.9485761955
 H       -11.7520926298        9.3605020456        5.5387646278
 H       -11.9240487676       11.1162059838        5.0267625624
 H        -6.5962847994        8.0162519344        4.3796356821
 H        -6.4129386061        9.7139813319        4.3339871177
 H        -4.9232586779        8.3663348309        2.5771343044
 H        -5.9255832168        9.7751868852        2.0447662217
 H        -6.8077084500        5.7447440196       -1.7180905925
 H        -7.5074779061        6.8988256523       -2.8124685229
 H        -9.6839441483        6.1054721395       -2.6691888436
 H        -9.3419873257        5.1606876751       -1.2267243969
 H        -6.7653103685        0.9734808412       -1.4604572303
 H        -7.8305930426        0.3088308163       -2.6291387842
 H        -8.4982239152       -0.0234813854        0.4402006388
 H        -7.7295585550       -1.1658357622       -0.4357712777
 H        -9.2892143150       -3.5396350603       -3.0435304036
 H       -10.9409083176       -3.1715798456       -2.5009113889
 H       -10.8013312563       -5.3927588011       -3.5995445971
 H       -11.5578629817       -5.3937586743       -2.0661041691
 H        -9.6060029539       -8.5562361223       -4.5617732908
 H       -10.0314622221       -6.7868981883       -4.5938808041
 H       -11.1950360587       -8.1087335611       -5.0970717780
 H        -8.0280705349       -8.5686294301       -1.1389926908
 H        -8.3935293323       -9.2043886029       -2.6933807110
 H        -9.2412515140       -9.8775447835       -1.2918495460
 H       -11.8003665447       -7.2729265483       -0.6916941779
 H       -10.4063014429       -7.2005221381        0.2860196359
 H       -11.3495214209       -8.6802183447        0.0266115861
 H       -10.3985446083       -1.4793913856        1.9105261356
 H        -8.8499085666       -1.5631008434        1.5746772236
 H        -9.8467447430       -3.0747138145        1.8536313217
 H       -12.0682975175       -3.2774931946        0.3876748933
 H       -12.1468783277       -2.9582270252       -1.2188206347
 H       -12.2841323756       -1.5027199880       -0.0577071698
 H       -10.9562356703        3.8746027033       -3.5574892198
 H       -11.0512140734        3.4408898198       -1.7709372330
 H       -11.4641055051        2.3521308642       -2.9359477419
 H        -9.6501440988        1.2119536277       -4.2830088825
 H        -7.8806756623        1.5249014141       -4.1299885463
 H        -8.9774454759        2.5750945211       -5.0042508847
 H        -5.6783986149        9.8104597330       -1.1774848027
 H        -6.6660323096       10.0498810684        0.2831929725
 H        -7.5339379813        9.6450264111       -1.1291932955
 H        -5.1673628018        6.0386071196       -0.6811467795
 H        -4.3439039513        7.4863832295       -0.5887570780
 H        -5.4019198903        7.3138134362       -2.0464366366
 H        -8.8950141048       12.0704889256        4.9880823869
 H        -7.8292498839       11.3383802411        3.8938986350
 H        -7.4869138114       10.9629702793        5.4431149404
 H        -9.6780684347        9.6170609362        6.5107890877
 H        -8.2871323850        8.6530794380        6.2151309126
 H       -10.0077598611        8.1222397406        5.7017351785
 H       -15.8145847183        9.4012726938        3.3109840851
 H       -16.2323406814        8.8538791093        1.6435106043
 H       -15.0860489407       10.1417907799        1.9564144192
 H       -16.1358909999        6.9132214071        1.9938499990
 H       -15.0204886332        6.3478182803        3.3554776966
 H       -14.5727242047        6.0876620730        1.6668313847
 Na      -10.3152235405        7.5885453472        1.2957694080
