117

 C       -14.7734643360        8.3027800150       -0.5048485613
 C       -13.7724361409        8.2421502564        0.6471643813
 O       -12.5628177617        8.1296276758        0.4510209134
 C       -14.3474789167        8.2517022178        2.0893826546
 C       -13.0916624796        8.4766322284        3.0787458166
 O       -12.2762199939        7.6513516449        3.3937242095
 C       -12.9983261067        9.9517501701        3.6709170744
 C       -11.7276360279       10.3150926825        4.7173860591
 C       -10.4569933247       10.0670031685        3.8317400788
 O       -10.6735541747       10.2239056215        2.6455735569
 C        -9.1233253894        9.6909710090        4.4877764159
 C        -8.2689976835        8.8610920172        3.4225574218
 O        -8.7364945758        8.3228298988        2.4452762631
 C        -6.7065562912        8.8318825647        3.6754720460
 C        -5.9388439010        8.6173244637        2.3945068878
 C        -6.3787276007        7.5201737981        1.4193968850
 O        -7.0641416059        6.4518123764        1.7093792276
 C        -6.3728654732        7.8449121414       -0.1949559633
 C        -7.7172481296        7.2297834020       -0.8326413521
 O        -8.7808314726        7.6562855502       -0.4402558476
 C        -7.7319602438        6.1830594718       -2.0451161768
 C        -8.8436382897        5.1301301695       -1.9500898149
 C        -8.3709694156        4.0177150158       -3.0034814959
 O        -7.5862866408        4.3995138285       -3.8252504419
 C        -9.1955511277        2.7246302430       -2.9553881709
 C        -8.6816246402        2.0160669307       -1.5794236647
 O        -8.7288259615        2.6508517137       -0.6082556068
 C        -7.8863039316        0.7116109945       -1.6971359826
 C        -8.3079715008       -0.2381057157       -0.6426235142
 C        -9.7046186586       -0.8698328306       -0.8785463783
 O       -10.3292494192       -0.4091130057       -1.8488057621
 C       -10.3011214102       -2.0719997948       -0.1312713526
 C        -9.5429037467       -3.3148032998       -0.9197944451
 O        -8.5716548148       -3.8103045376       -0.4626856906
 C        -9.9563737105       -3.7989914422       -2.3410699810
 C       -10.5855802636       -5.2244215900       -2.2990521233
 C        -9.4541531906       -6.1677726281       -1.9041157920
 O        -8.2477938971       -6.0076168260       -1.7763405418
 C       -10.0507090438       -7.7051455555       -1.7908284984
 C       -11.1077001729       -8.0054530756       -2.9323396833
 O       -12.3158053363       -8.1619164311       -2.7011465488
 C       -10.4980027433       -8.0001342974       -4.3154361777
 C        -8.9281447770       -8.7463401709       -1.5201649984
 C       -10.8003855820       -7.6100231303       -0.5122481466
 C       -10.1013516679       -1.9813846889        1.3778673341
 C       -11.9167955182       -2.2522597503       -0.2967569459
 C       -10.6836720667        3.0842647189       -2.7152067037
 C        -9.0450856254        1.9663570705       -4.2280172843
 C        -6.4917300811        9.3105217518       -0.5902814645
 C        -5.0570811855        7.1779808091       -0.8970201412
 C        -8.4771908127       11.1388218749        4.8001191293
 C        -9.2438594371        8.8484627934        5.7599076239
 C       -15.4999327461        9.3372867087        2.3509444463
 C       -14.9145204531        6.8584346051        2.4599215881
 H       -14.3104549034        8.4498352668       -1.4461006071
 H       -15.5034482326        9.1442748095       -0.4017241838
 H       -15.2556065793        7.2337599254       -0.4928395178
 H       -13.9178835604       10.1175802665        4.2050331879
 H       -12.7414010143       10.6916783423        2.8923099702
 H       -11.6792631711        9.6218244673        5.5365419827
 H       -11.9755752317       11.3446353284        4.9615980540
 H        -6.4980932424        8.1372502606        4.4571059900
 H        -6.4526311697        9.7378023218        4.2089076183
 H        -4.9417091843        8.3987431659        2.5135314290
 H        -6.0806781034        9.5092350062        1.8433681821
 H        -6.6182333117        5.6548154962       -1.9697135500
 H        -7.8689962550        6.6474393893       -3.0152805394
 H        -9.7890600338        5.5812470171       -2.2020165784
 H        -9.0412075005        4.7678526859       -0.9060293341
 H        -6.8076141081        1.0038518566       -1.3763180724
 H        -7.7572418945        0.2461977391       -2.6335336104
 H        -8.3352981040        0.2460343645        0.2415937392
 H        -7.3935154979       -0.8920300181       -0.4442596803
 H        -9.0584274308       -3.9948796373       -2.8380925429
 H       -10.5574778456       -2.9788401296       -2.8851594605
 H       -10.9786628027       -5.5114866628       -3.3105017755
 H       -11.6022079241       -5.2879697214       -1.7829969864
 H        -9.8593527339       -8.9225901565       -4.2600779532
 H        -9.9054335527       -7.1401646275       -4.3420231923
 H       -11.2307066146       -8.1867536068       -5.1136959495
 H        -8.2710681165       -8.4131210489       -0.6864831019
 H        -8.3298269994       -9.0338405481       -2.3576889374
 H        -9.4735327312       -9.6611236128       -1.1680139847
 H       -11.6614006933       -7.0464013876       -0.5541012108
 H       -10.1464348672       -7.1982834530        0.2742885418
 H       -11.2319701718       -8.5946524042       -0.1054822890
 H       -10.9836742310       -1.5546500075        1.9340200740
 H        -9.3001179885       -1.3252793096        1.7086021370
 H        -9.9399627008       -2.9854476042        1.8887792003
 H       -12.1910507825       -3.3140526438        0.0245669114
 H       -12.4243277769       -2.2263352893       -1.2452568095
 H       -12.2034328991       -1.5000893474        0.3631418351
 H       -11.0778344160        3.8071549669       -3.4401200864
 H       -10.9499478587        3.2916690458       -1.6278438120
 H       -11.3574821886        2.2432597765       -2.7271499869
 H        -9.7756004418        1.1042911805       -4.4738358703
 H        -8.0515236938        1.5840853227       -4.2784899353
 H        -9.1993765067        2.7203439150       -5.0404688151
 H        -5.5096186384        9.7240772180       -0.7298387896
 H        -7.1329718729        9.8536522682        0.2078721240
 H        -7.2135618623        9.3434669672       -1.4401224775
 H        -4.6748796903        6.1813772276       -0.4988266012
 H        -4.1916521975        7.7946464588       -0.5822076360
 H        -5.1548911811        7.2229268540       -2.0171149480
 H        -9.1021187799       11.9958501962        4.7913326645
 H        -7.6958349180       11.2739692179        4.0473367799
 H        -7.9873139789       11.0636878679        5.6598108373
 H        -9.9373775025        9.3091474666        6.5074844022
 H        -8.3183101672        8.6505336451        6.2896258306
 H        -9.8633026253        7.8980404643        5.5344926485
 H       -15.6652862063        9.2659473314        3.3778171955
 H       -16.4574855329        9.0533841047        1.8457098757
 H       -15.2295893077       10.3310976358        2.2304424241
 H       -15.7520861773        6.7392532726        1.6491650598
 H       -15.2820287847        6.8560080264        3.4808681322
 H       -14.0479301040        6.1128671397        2.2748305167
 Na      -10.5071026719        7.6934177771        1.3005244974
