117

 C       -14.9345743916        8.4183780095       -0.4820505434
 C       -13.7437182063        8.2041427505        0.5371592133
 O       -12.7020590695        7.6989921270        0.1823010710
 C       -14.2617699154        8.4263059734        2.0065868920
 C       -13.0108010433        8.9991239226        2.8688949818
 O       -12.1264310656        8.1716464610        3.1018405159
 C       -13.0270632609       10.4184040905        3.6452983081
 C       -11.6051394605       10.4684311774        4.5526965072
 C       -10.4666102866       10.1147986122        3.6298646252
 O       -10.5447746930       10.2176107507        2.4321667397
 C        -9.1525506769        9.5772506154        4.2574135562
 C        -8.1517414594        8.7321144389        3.3922878162
 O        -8.5236446771        8.3121635690        2.3057274346
 C        -6.7683184705        8.4421346413        3.8462887292
 C        -5.8652539210        8.2380748812        2.6513940348
 C        -6.5522532850        7.4017886701        1.4864939454
 O        -6.7420484044        6.2035405511        1.6451890974
 C        -6.5026954622        7.6878496369       -0.1085533646
 C        -7.7027690474        7.0874983622       -0.8013903853
 O        -8.8774339162        7.2763032733       -0.4164988387
 C        -7.5665526387        6.2455223635       -2.1389028405
 C        -8.2606255070        4.8760175143       -1.8651756398
 C        -8.3399299782        3.7940118670       -3.1093906755
 O        -7.7206694608        3.9799898703       -4.0957144514
 C        -9.2488686769        2.5076429237       -2.9877321540
 C        -8.5704848676        1.7463051318       -1.8440060190
 O        -8.7031085895        2.2026129318       -0.6683998944
 C        -7.7341335262        0.5053499999       -1.8312817616
 C        -8.2048515945       -0.2904926480       -0.6175898912
 C        -9.7060898250       -0.4713948321       -0.7952889752
 O       -10.3820046674        0.1710514569       -1.6038949164
 C       -10.3168255625       -1.8025553885       -0.2746310051
 C        -9.4662229089       -2.8974420896       -0.7750837262
 O        -8.5288675522       -3.2421810851       -0.0800753459
 C        -9.6817246327       -3.5749094061       -2.1373681357
 C       -10.5245909613       -4.8425440463       -2.1517192766
 C        -9.7298875682       -6.0555149148       -2.1087382319
 O        -8.5771332246       -5.9002095869       -2.4791680286
 C       -10.1720698277       -7.4675280114       -1.4814766012
 C       -11.1758214800       -8.1944636898       -2.4800136798
 O       -12.3019128503       -8.4763267704       -2.0608142276
 C       -10.5017485379       -8.4756580741       -3.8600843045
 C        -9.0183795963       -8.4277427329       -1.2715318218
 C       -11.0004766788       -7.2861153112       -0.1529802903
 C       -10.3793955126       -1.8774801738        1.3528424308
 C       -11.9064740495       -1.9731039636       -0.5977455091
 C       -10.7181219078        2.7683978464       -2.6228335470
 C        -9.1923662118        1.7151036540       -4.3270701002
 C        -6.5277353386        9.3129213681       -0.4739632426
 C        -5.2643935696        6.9089246843       -0.5144178629
 C        -8.4351453219       10.8609918733        4.8367578559
 C        -9.3670311054        8.5859405923        5.3647409746
 C       -15.4840449493        9.3988270994        1.9930387067
 C       -14.6635982956        6.9573622791        2.5135010731
 H       -14.6596603698        8.2000656016       -1.4399902302
 H       -15.4362616294        9.3775958325       -0.6230906882
 H       -15.5565883491        7.6094538832       -0.1194305214
 H       -13.8749334891       10.3433665515        4.3055348484
 H       -13.1213112833       11.2196932640        2.8781931031
 H       -11.8130678678        9.5608341126        5.1318334542
 H       -11.2970320008       11.3980370775        5.0500672720
 H        -6.7315043366        7.5075082758        4.4198738973
 H        -6.4594113510        9.0927211020        4.7094895070
 H        -5.0549418489        7.6464232527        3.1282019630
 H        -5.5527265701        9.2203657322        2.1470903321
 H        -6.4693164224        6.1564116038       -2.4888336208
 H        -8.1508898973        6.7903912223       -2.7723948077
 H        -9.3909434832        5.0568865014       -1.6511316808
 H        -8.0022907837        4.5628620021       -0.8950445188
 H        -6.6770215653        0.8089384651       -1.7146837266
 H        -7.9414253595       -0.1584885804       -2.6874393462
 H        -7.7152761564        0.1315299990        0.2774561295
 H        -7.7147203987       -1.3052488459       -0.6349891909
 H        -8.6523458607       -3.8296612727       -2.4287424349
 H       -10.1297675733       -2.9005879118       -2.8667613522
 H       -11.3638545177       -4.7172719460       -2.8553513801
 H       -11.2581842842       -4.8056838993       -1.2437383023
 H       -10.5468389304       -9.5771469028       -3.9182696731
 H        -9.5116339182       -8.0363235330       -3.7975858290
 H       -11.1496478512       -8.2022211765       -4.6541516748
 H        -8.5116901310       -8.2603191525       -0.3281310208
 H        -8.4678852239       -8.5619124410       -2.1592258498
 H        -9.4687871641       -9.4230153117       -1.1016688617
 H       -11.7195105276       -6.5793928084       -0.2210282855
 H       -10.4131247830       -7.0886207284        0.7553039583
 H       -11.5917830546       -8.2086201748        0.1045223999
 H       -10.8977447712       -1.1303615958        1.8293825696
 H        -9.3876807901       -2.0136438901        1.7365635829
 H       -10.8030000761       -2.8055655346        1.7817058583
 H       -12.1405815885       -3.0245994237       -0.3883669646
 H       -12.0130648008       -2.0450740710       -1.6894006371
 H       -12.4952505462       -1.1898397198       -0.0957911443
 H       -11.1726660007        3.4207358707       -3.3100622692
 H       -10.8216937975        3.2162026594       -1.6157325439
 H       -11.3005006611        1.9436515218       -2.3423058583
 H        -9.1246112913        0.6529740433       -4.0531119875
 H        -8.2670038047        1.8188276532       -4.8038921453
 H        -9.9626778540        1.9236395453       -4.9907638864
 H        -6.6953226410        9.8305291445        0.3755270908
 H        -7.2721919149        9.3785612688       -1.2577240899
 H        -5.6057365780        9.5913521646       -0.9199981508
 H        -5.7200544360        5.8716983376       -0.4817025967
 H        -4.4437598263        6.9503065613        0.1457697585
 H        -4.8813762665        7.0824202274       -1.4771662087
 H        -9.0757616840       11.3525183699        5.6865044153
 H        -8.3866465010       11.5343791513        3.9400720267
 H        -7.4921195119       10.7381310061        5.3141631739
 H        -9.9954148708        8.9869796557        6.0986123147
 H        -8.4095569078        8.3949789233        5.8412986652
 H        -9.9377275504        7.6949161084        5.1779453242
 H       -15.9398798989        9.7677719411        2.9292357937
 H       -16.3078317945        8.7633061949        1.5014422246
 H       -15.1407219903       10.2585104156        1.4329627588
 H       -14.5672580668        6.2544203633        1.6708013678
 H       -15.5913744582        7.0606553931        2.8580315002
 H       -14.0303789456        6.7565229829        3.3132915511
 Na      -10.6709295484        8.1886043543        1.3051647556
