117

 C       -14.8854468620        8.3693166816       -0.5981740009
 C       -13.8797225302        8.1667957924        0.5283660476
 O       -12.7621616920        7.7727356472        0.2083951441
 C       -14.2557807869        8.5757136586        1.9982732886
 C       -13.0388265499        8.9330203895        2.9083230242
 O       -12.0921548489        8.1966160188        2.9149729722
 C       -12.9609704420       10.2732428912        3.5163091157
 C       -11.7230921825       10.5545907676        4.4719795604
 C       -10.4688026548       10.1456976205        3.5216615500
 O       -10.5236986611       10.4818651678        2.3663340958
 C        -9.1577120735        9.5891327089        4.2943342000
 C        -8.1755345706        8.7306147956        3.2772077872
 O        -8.4553135189        8.3079591741        2.2070201453
 C        -6.7567833353        8.3091057743        3.9045273016
 C        -5.8209893680        8.1291784516        2.6207106883
 C        -6.4657309720        7.3237129264        1.4568705472
 O        -6.7661984772        6.1329003758        1.8577224422
 C        -6.5563738889        7.5955090519       -0.0784710005
 C        -7.8896387508        7.0388279445       -0.7464309835
 O        -9.0071519501        7.1210229670       -0.3327826757
 C        -7.6734587204        6.0569909304       -2.1077204336
 C        -8.3328137655        4.7460517732       -1.9549896992
 C        -8.3712898309        3.8647187388       -3.2288991332
 O        -7.6555315861        4.0510000375       -4.1932672375
 C        -9.1475279694        2.5082092106       -2.9569832377
 C        -8.5311989010        1.8094822044       -1.6492917663
 O        -8.7461688231        2.3219322593       -0.6281151364
 C        -7.6488561558        0.5050129701       -1.8488108440
 C        -8.1580691376       -0.4512982012       -0.7898920147
 C        -9.7305665795       -0.6391727497       -0.8095155994
 O       -10.3288959662        0.2927613791       -1.3580948126
 C       -10.4833460141       -1.8192016739       -0.1131731113
 C        -9.4217897021       -3.0559850255       -0.6473489798
 O        -8.3853211652       -3.2019481089       -0.1061977544
 C        -9.6998885402       -3.6241288324       -2.1539682892
 C       -10.6707119844       -4.8017034545       -2.1329279249
 C        -9.6780206108       -6.1359146316       -2.1894201814
 O        -8.6273422422       -6.1015070556       -2.7891647000
 C       -10.2293109066       -7.3789887299       -1.3859813113
 C       -11.1771522172       -8.2189781097       -2.3335475787
 O       -12.3143613824       -8.5295673918       -2.0534418746
 C       -10.6093045845       -8.5825092285       -3.6912170649
 C        -9.0159432676       -8.2669273721       -1.0093298925
 C       -10.9455486129       -7.1514035153       -0.0430583498
 C       -10.5391497096       -1.5060666573        1.4173585226
 C       -11.9386196310       -1.9687835732       -0.5765434532
 C       -10.5988992755        3.0285657662       -2.6689364505
 C        -9.1842201927        1.6306640444       -4.2550666083
 C        -6.4513764969        9.1604109831       -0.3308822835
 C        -5.2545449882        6.9477894168       -0.6872178204
 C        -8.3109000787       10.7634989804        4.8053670600
 C        -9.5697324103        8.4925301907        5.4161821126
 C       -15.4876424319        9.4364986807        2.0534133044
 C       -14.6471706040        7.1361056513        2.5166245976
 H       -14.5579425663        7.7356391097       -1.4267207070
 H       -14.7794773041        9.3089827221       -1.0204481798
 H       -15.9200009019        8.0875168361       -0.2682914584
 H       -13.8932080296       10.5478614236        4.0173854435
 H       -12.8229526504       10.8873721656        2.5951448361
 H       -12.0109614208       10.0694226435        5.3885861782
 H       -11.5421885376       11.6159936219        4.4421990176
 H        -6.9564667729        7.3791152005        4.4552184567
 H        -6.2686920916        8.7733693324        4.7502853309
 H        -4.9741416712        7.6104338527        3.0147360171
 H        -5.5252909877        9.1279701134        2.2739683687
 H        -6.5584974708        5.8194911365       -2.3300369213
 H        -8.1390908104        6.6326787417       -2.8900189258
 H        -9.1098759319        4.6210067867       -1.2943584707
 H        -7.5508303661        4.1702976772       -1.3512777361
 H        -6.5600268377        0.7961699261       -1.5946299224
 H        -7.7946348629        0.0473740883       -2.7696316797
 H        -7.9493004410        0.1290445882        0.0242164261
 H        -7.4382188621       -1.3101263338       -0.6372139889
 H        -8.7827217458       -3.9839101309       -2.5007984405
 H       -10.0286594752       -2.7205580586       -2.8219776414
 H       -11.4876984100       -4.8044681592       -2.9775347239
 H       -11.4616656846       -4.7700435849       -1.2891035668
 H       -10.7381091994       -9.6693658016       -3.7639551870
 H        -9.6731208235       -8.1944773542       -3.8090489515
 H       -11.3792921591       -8.2642341230       -4.4241779269
 H        -8.5449217219       -7.8195380010       -0.1768773971
 H        -8.4743440254       -8.3971627483       -1.8981203679
 H        -9.2171836536       -9.2652735451       -0.6625419306
 H       -11.8750944828       -6.6018008331       -0.0258702295
 H       -10.3000702417       -6.6259861947        0.6213201289
 H       -11.1310754328       -8.0885259123        0.4824021344
 H       -10.7843555806       -0.4119560023        1.5886506878
 H        -9.6656679955       -1.8341420815        1.8501269078
 H       -11.2509610053       -1.9664408951        2.0341457103
 H       -12.4928418680       -2.9401592442       -0.2008620612
 H       -11.8068318170       -2.1642549677       -1.6272927647
 H       -12.4411912941       -1.0237021424       -0.4374262327
 H       -10.8855186268        3.8969888205       -3.2557607259
 H       -10.8023730571        3.2636566833       -1.5885811595
 H       -11.3053307759        2.2239541600       -2.6579475283
 H        -9.3473728885        0.6174522411       -3.9826126425
 H        -8.2850038827        1.5453433200       -4.7540670576
 H        -9.9125047317        2.0287884840       -5.0007709138
 H        -6.9431330590        9.7254731091        0.4489651892
 H        -6.7749615489        9.3538436258       -1.3513368232
 H        -5.4017492947        9.3032089224       -0.2647387429
 H        -5.4402136033        5.8895447024       -0.6294271533
 H        -4.4332934933        7.2137577317       -0.0360521173
 H        -4.8894686564        7.2034452845       -1.7132788091
 H        -8.3579683332       11.0475301255        5.7709191442
 H        -8.4668920544       11.5562145533        4.0462844970
 H        -7.3087655697       10.4777549116        4.6941727233
 H       -10.2585640555        8.9899920420        6.1597936376
 H        -8.8263291446        7.9515961510        5.9316522831
 H       -10.3831913971        7.8146102836        5.0471714297
 H       -15.6204500890        9.7706863623        3.0578834896
 H       -16.3391401965        8.7488477826        1.8985445855
 H       -15.4325573438       10.3127335749        1.4021644835
 H       -14.5807633075        6.5418580974        1.6615942991
 H       -15.6762789305        7.2373809273        2.9091288284
 H       -13.9318669317        6.8366140188        3.3307346634
 Na      -10.4173660144        8.2242483022        1.1141036589
