117

 C       -14.7723631113        8.2932619233       -0.6342353242
 C       -13.8258564435        8.2497956232        0.5167037380
 O       -12.6887065244        8.1317120600        0.1831883312
 C       -14.2566559091        8.4227861917        2.0680319886
 C       -13.0481226632        8.9748696883        2.6901716758
 O       -12.0223724189        8.2642605371        2.6747491670
 C       -12.9417993343       10.3866831804        3.2886879058
 C       -11.5886680401       10.5247281307        4.0822114854
 C       -10.3155612199       10.1759468159        3.3546264538
 O       -10.0010281054       10.6353952450        2.2562026353
 C        -9.1992816110        9.4967952676        4.2205668078
 C        -8.2177159639        8.7658461012        3.2356289618
 O        -8.5337161262        8.5805958897        2.0587562936
 C        -6.9808077031        8.0605831485        3.7087125782
 C        -5.9987780950        7.8984187611        2.5688411808
 C        -6.5241642904        6.9120745387        1.5815135673
 O        -6.7941518661        5.8362628582        1.9247429307
 C        -6.4830653584        7.3851739528       -0.0251965987
 C        -7.7382129348        6.8314685999       -0.8451876280
 O        -8.8291702863        6.9080557432       -0.2053146095
 C        -7.7329382282        6.3118079218       -2.1896235047
 C        -8.0494738068        4.8014026497       -1.8598930848
 C        -8.2701639232        3.8569473339       -3.1539834836
 O        -7.7271612595        4.1341603847       -4.1715411741
 C        -9.1242706210        2.5428354704       -2.9410790307
 C        -8.5681791898        1.8620377769       -1.5963078977
 O        -8.7493461857        2.5453737937       -0.5142555379
 C        -7.6477408068        0.6175848127       -1.7562907035
 C        -8.2508231320       -0.5578636973       -0.9086093812
 C        -9.7121807039       -0.5097768277       -0.8445415910
 O       -10.4663764732        0.3671073436       -1.2541944124
 C       -10.4060849768       -1.7323845405       -0.1221481344
 C        -9.5134698671       -3.0402058682       -0.5319864662
 O        -8.6418662002       -3.3870559321        0.2536156190
 C        -9.7222996936       -3.6277233953       -2.0233073377
 C       -10.6117562059       -4.9549683780       -2.2938668783
 C        -9.8167512952       -6.2790634995       -2.2633001868
 O        -9.1055688968       -6.6320622378       -3.2154047530
 C       -10.1846322891       -7.3494342978       -1.1704906826
 C       -11.0928665049       -8.3020792549       -1.9967701686
 O       -12.2798888906       -8.4042300867       -1.7346926356
 C       -10.6870238711       -8.8200043012       -3.4417550536
 C        -8.9076945190       -8.1156421083       -0.7236284815
 C       -10.9881847944       -6.7763855807        0.0489585374
 C       -10.2990835742       -1.3811698553        1.4343995996
 C       -11.9197604700       -1.9115188304       -0.5439297658
 C       -10.5480333351        3.1566059826       -2.7775183174
 C        -9.1114157182        1.6826841532       -4.1693294376
 C        -6.7529700513        8.8417685920       -0.1969539981
 C        -5.1820675996        6.8713016578       -0.7537974278
 C        -8.3356410010       10.7257010703        4.9655244405
 C        -9.8075377951        8.6022506803        5.3678902717
 C       -15.3541746039        9.4772554872        2.1281359553
 C       -14.8245050810        7.1785795454        2.5984692332
 H       -15.0692420427        7.3344787208       -1.0392031313
 H       -13.9710026323        8.5426611062       -1.4344237300
 H       -15.6105559086        9.0098209923       -0.5792344109
 H       -13.7718890437       10.8431109109        3.8612270747
 H       -12.6880878782       11.0518750912        2.4513674773
 H       -11.6924220393        9.7967447928        4.9066422228
 H       -11.6009890185       11.5737395232        4.3963038287
 H        -7.3885278353        7.2352740918        4.2701651944
 H        -6.4344641241        8.5426420350        4.5345280524
 H        -5.0682574355        7.4690386973        3.0035141729
 H        -5.6625302076        8.9154955671        2.2888922951
 H        -6.6995817888        6.4569941302       -2.6070169716
 H        -8.5112824072        6.7496773695       -2.8073087618
 H        -8.8091091395        4.5320984392       -0.9944104861
 H        -7.1538120418        4.3836132144       -1.4493652024
 H        -6.7600078799        0.9247167924       -1.3464054920
 H        -7.6298806023        0.2521217763       -2.8148664789
 H        -7.8177218530       -0.4908213807        0.1682472452
 H        -7.9411309867       -1.4906709883       -1.3194089607
 H        -8.6939931012       -3.7843719858       -2.5280438063
 H       -10.0460141138       -2.7550414155       -2.4744185044
 H       -11.1598002841       -4.9091160828       -3.1775819906
 H       -11.4104674229       -5.0410084615       -1.5782232820
 H       -10.7973090811       -9.9076141718       -3.4605393506
 H        -9.6543853217       -8.4153844194       -3.6443311382
 H       -11.4259456737       -8.4440624350       -4.1352368302
 H        -8.3557886151       -7.3524626670       -0.1620550814
 H        -8.3776303422       -8.5793527707       -1.5607524973
 H        -9.0609666460       -8.8872467541        0.0314806230
 H       -12.0168950142       -6.7101123268       -0.2490580629
 H       -10.7557674945       -5.6811844233        0.2728880984
 H       -10.8745688900       -7.1706176045        1.0893886795
 H       -10.5288524959       -0.3710240578        1.4985771581
 H        -9.4405864143       -1.7107699211        2.0955848295
 H       -11.1933872497       -1.7301288125        2.0646820075
 H       -12.3610180726       -2.3227646515        0.3009310117
 H       -12.1794322591       -2.3853509145       -1.5352351243
 H       -12.2751074224       -0.8495096514       -0.5381463250
 H       -10.5718313771        4.2296533146       -3.0992505044
 H       -10.9898114026        3.2234196080       -1.7561911354
 H       -11.2990759006        2.5314605220       -3.3256067628
 H        -9.9688534774        0.9318990512       -4.1400048635
 H        -8.2432712646        0.9829895376       -4.3817307386
 H        -9.1353783837        2.3461616612       -5.0162270467
 H        -7.7999319775        8.9512680392        0.0732239061
 H        -6.5382139784        9.2049507027       -1.2446832534
 H        -6.1530653558        9.3228057959        0.6224967740
 H        -4.8436696528        5.8004890151       -0.5939234681
 H        -4.4631394175        7.6104452021       -0.3785876549
 H        -5.1387811942        7.0667828297       -1.8019261000
 H        -8.4100276652       10.4987827278        6.0918358247
 H        -8.7719930843       11.6660182563        4.6236108296
 H        -7.2718589204       10.6543401173        4.8107604986
 H       -10.1783638736        9.0753730039        6.2476489688
 H        -8.9269352067        7.9428396402        5.6899527456
 H       -10.5651518906        7.8655429591        5.1310804686
 H       -15.7061561122        9.4411878921        3.1582844714
 H       -16.1713450090        9.2044686630        1.4515820739
 H       -14.9913952148       10.4391149772        1.8627495603
 H       -15.6042255463        6.8446110743        1.7872206009
 H       -15.2989581804        7.5206298768        3.4734374953
 H       -14.0227853179        6.4743811198        2.8065831522
 Na      -10.3952197866        8.3763364256        0.7421672565
