117

 C       -13.0851926285        6.1487900706       -5.5842848334
 C       -12.3123692206        5.9890245031       -6.8911717912
 O       -12.3338694373        6.9398148561       -7.5964782915
 C       -11.5225948898        4.6918018722       -7.4040782194
 C       -10.4350926446        4.3802951546       -6.3746564101
 O       -10.6352812834        3.6941444314       -5.3861038652
 C        -9.0367797986        5.0005743966       -6.5505051608
 C        -8.0566248590        4.2793638145       -5.6764650228
 C        -7.9879796050        4.8211858289       -4.2971227441
 O        -8.3907880950        5.9442050047       -4.0291169438
 C        -7.5531750824        3.9787685583       -3.0959961590
 C        -6.7469741985        4.7584378384       -2.0968940170
 O        -5.5564486022        4.4847753750       -1.9474609478
 C        -7.4054498148        5.8610501665       -1.3189459482
 C        -6.5687115810        6.3412149719       -0.0213498557
 C        -6.4401991369        5.2769027510        1.1121538880
 O        -6.9401637981        4.1580469720        1.0984794990
 C        -5.6255984660        5.8704906226        2.4938004257
 C        -6.6126271654        6.7895962793        3.2847830511
 O        -6.8848391907        7.8951825880        2.8287582955
 C        -7.1068172331        6.3528588922        4.7352006297
 C        -8.5914603939        6.4234723047        4.9904304127
 C        -9.3632264053        5.3153992932        4.2537707005
 O        -8.7142941011        4.4606879274        3.6909345026
 C       -10.9149079141        5.5914949210        3.9422562971
 C       -11.6297879226        4.2588898170        3.5366516161
 O       -10.9988740508        3.5058155942        2.7894429046
 C       -12.9587057973        3.7374020804        4.1641398861
 C       -13.3284382441        2.3852629513        3.5786289658
 C       -13.6885645962        2.7555909022        2.1053933830
 O       -13.5513426975        3.8511245347        1.6271958333
 C       -14.4134867164        1.6205152487        1.1357759091
 C       -13.2586659591        0.6173148943        1.0895644308
 O       -13.0509558525       -0.0390668137        2.1650215135
 C       -12.3468818350        0.2905341289       -0.1576448265
 C       -11.2296763970       -0.6530824047        0.2129171129
 C       -10.0269692370        0.0482022182        0.9243636144
 O        -9.9298247343        1.2230389394        0.8190755053
 C        -8.8785243752       -0.7786727934        1.5700547065
 C        -8.7913124930       -0.2235214691        3.1064264754
 O        -8.7634680417        0.9631834634        3.3600549644
 C        -8.9127553347       -1.1745808148        4.2784043454
 C        -9.1556832262       -2.3105667624        1.5517952407
 C        -7.5718121511       -0.3937337402        0.8080959996
 C       -15.6655742723        0.9887396101        1.8386356265
 C       -14.8738221066        2.1923927163       -0.2288254064
 C       -11.6211375029        6.3187706929        5.1932631459
 C       -11.0368395601        6.5407266314        2.7092693769
 C        -5.0973041640        4.6033727569        3.2004323071
 C        -4.4439311318        6.8165166918        2.1922341738
 C        -8.6501462554        3.2520370832       -2.3238934778
 C        -6.6578103531        2.8612636328       -3.6217052746
 C       -12.5592198947        3.4619509036       -7.3837508561
 C       -10.9797561118        4.9265792172       -8.8673799392
 H       -14.0390027080        6.5096787917       -5.8619854369
 H       -12.5009044450        6.8280712222       -4.9327696964
 H       -13.0629790379        5.1672763910       -5.0698720554
 H        -9.1880124840        6.0491067001       -6.2126164342
 H        -8.7027040702        5.0003975698       -7.6234601042
 H        -7.0296543951        4.4626815566       -6.1089326694
 H        -8.3188485492        3.2011077874       -5.6670412481
 H        -8.3672934600        5.4897870610       -0.9505278875
 H        -7.5431314652        6.7089810564       -1.9161348703
 H        -7.0542342902        7.2312042853        0.3586064103
 H        -5.5466467038        6.6809222637       -0.3901927633
 H        -6.5612557720        6.9512872027        5.4165643486
 H        -6.7964046509        5.3060847590        4.8569664451
 H        -8.8511188696        7.4460707802        4.7328645807
 H        -8.7391819738        6.3787396087        6.0739364294
 H       -13.7930828440        4.4355041838        3.9037668787
 H       -12.9453262275        3.7768448748        5.3366718336
 H       -14.2572986722        2.1620365774        4.0310293442
 H       -12.5590718524        1.6094003562        3.6903337399
 H       -11.8440734030        1.1686361385       -0.5479996977
 H       -12.9355780309       -0.1680121368       -0.9913609609
 H       -10.8733424878       -1.2846396846       -0.6864098549
 H       -11.5705927467       -1.3726421692        1.0212457367
 H        -9.0029891151       -0.5156646503        5.1433471968
 H        -7.9931358998       -1.6775140840        4.4424204819
 H        -9.6402516629       -2.0004820464        4.2215290520
 H        -9.1906464121       -2.5503243320        0.5109713089
 H       -10.1621929005       -2.6036298802        2.0039910396
 H        -8.3582556495       -2.9018597809        1.8033140907
 H        -7.2738473787        0.6664218294        0.7731113088
 H        -7.6277298996       -0.8478988675       -0.1524977483
 H        -6.6971726925       -0.8997896894        1.3044900683
 H       -15.3319944129        0.7425753152        2.8772042885
 H       -16.0319467930        0.0972835570        1.3858075285
 H       -16.4866655968        1.6939590310        2.0466142105
 H       -14.9450305721        3.3073658262       -0.3085689668
 H       -15.8015855595        1.8917254458       -0.5253770965
 H       -14.1787250559        1.9912964895       -1.0483552688
 H       -11.2705760945        7.3576980833        5.1409875474
 H       -11.3396538027        5.9610463599        6.2039941729
 H       -12.6778072730        6.2318168238        5.2236577304
 H       -11.4376276440        7.5528862958        3.0242848224
 H       -11.7751266450        6.1505527666        2.0116064985
 H       -10.0552528529        6.7204041235        2.1659010889
 H        -4.7490617632        4.8389749461        4.1612754950
 H        -4.1573145027        4.3169460651        2.7055366355
 H        -5.9982422036        3.9667938075        3.2548326556
 H        -3.5624351611        6.2533427350        1.8043031316
 H        -4.0937227094        7.2578398878        3.1219989508
 H        -4.7663641380        7.6868191085        1.6398073222
 H        -9.1322455529        2.4543032465       -2.9621142406
 H        -9.5243221722        3.9183479204       -2.2188236815
 H        -8.3974438701        2.9091728169       -1.3158430879
 H        -7.2914407816        2.2430204986       -4.2414307070
 H        -6.3098264011        2.2565966779       -2.8244008191
 H        -5.8866474951        3.3242568966       -4.1976447786
 H       -12.8833105074        3.2550687233       -6.3550809643
 H       -11.9723932669        2.6237063482       -7.7394899340
 H       -13.5097441733        3.7243621573       -7.9040585415
 H       -10.4834435055        5.9416949451       -8.9670712127
 H       -11.9088716470        4.8779913344       -9.4143473812
 H       -10.3726934599        4.0120325837       -9.0700055225
 Na       -8.6522901194        2.8043555445        2.0605581627
