117

 C       -14.8883460334        8.0291102206       -0.7509691248
 C       -13.7399785319        8.4908204196        0.1235999955
 O       -12.6728883908        8.8527944996       -0.4173972508
 C       -14.0074945716        8.7468878762        1.6765499349
 C       -12.7228465165        9.3690269409        2.3573263141
 O       -11.8331703787        8.5565119218        2.6576184040
 C       -12.5719305052       10.7941774358        2.8226471113
 C       -11.3905838642       10.8703123798        3.7590836895
 C       -10.1151188135       10.2227248570        3.1253559133
 O        -9.7415558975       10.5845541435        2.0148368559
 C        -9.2328310523        9.3902526877        4.1725699789
 C        -8.2314258151        8.5485553060        3.2385329805
 O        -8.4893720699        8.3376998163        2.0613962979
 C        -7.0366057618        7.8514013621        3.8987566067
 C        -6.0347582164        7.4078233022        2.7657784061
 C        -6.7145506070        6.7636139583        1.5346740518
 O        -7.3895247166        5.7603691489        1.6978869662
 C        -6.4872916116        7.3537653512       -0.0007195271
 C        -7.7026152497        7.0143637216       -0.8937189293
 O        -8.7573248693        7.6165920435       -0.6084654567
 C        -7.7207018464        6.1628729047       -2.2187866518
 C        -7.5547879782        4.7151189806       -1.9402099487
 C        -8.0685420551        3.9309087483       -3.1014183091
 O        -7.8219517329        4.3488951894       -4.2549390512
 C        -9.0455569374        2.7877419450       -2.9172971412
 C        -8.6274541205        1.8828736382       -1.6209318613
 O        -9.0300276024        2.0651097868       -0.4724545200
 C        -7.7384772534        0.5959115007       -1.8910755250
 C        -8.1748466096       -0.4926478016       -0.7729481643
 C        -9.6030676647       -0.8425953116       -0.9226016020
 O       -10.0974556007       -0.4772405336       -1.9682691912
 C       -10.2834275763       -1.8264326457        0.0190212585
 C        -9.7786405814       -3.3780792486       -0.1655569513
 O        -9.7506773352       -4.0371596693        0.8245124408
 C        -9.6088608896       -3.7584830265       -1.7523178537
 C       -10.6929737014       -4.6372650013       -2.3201785966
 C       -10.2122955781       -6.2047500864       -2.3815028691
 O        -9.6740249554       -6.6153885215       -3.3468229409
 C       -10.3910787380       -7.1860973981       -1.0485810802
 C       -11.3215253414       -8.4040434444       -1.2950791166
 O       -12.5204365641       -8.3670869820       -1.1684372669
 C       -10.7423695682       -9.7841565507       -1.7436039278
 C        -8.9299863642       -7.7354954154       -0.8244006401
 C       -10.8592679163       -6.5964912642        0.2461816271
 C       -10.1323590774       -1.3410194019        1.5515100882
 C       -11.9427914131       -2.0868169198       -0.2021130997
 C       -10.3627117878        3.6228432475       -2.7638770559
 C        -9.1503001073        1.8685234328       -4.2506861245
 C        -6.3782280884        8.8863634630        0.2239232133
 C        -5.1540174497        6.8811994033       -0.6650338267
 C        -8.2981866658       10.4216083084        4.8551134396
 C        -9.9434398637        8.4758415860        5.2018492600
 C       -15.2471146228        9.5458976855        1.8565212847
 C       -14.2855422771        7.2600340844        2.2918598314
 H       -15.7374510396        8.7723745507       -0.9268272669
 H       -15.4689730919        7.2956564967       -0.2252481952
 H       -14.3905475231        7.5003253204       -1.6119709684
 H       -13.5245522811       11.2121326979        3.0838125069
 H       -12.3420265014       11.4189258512        1.9371128882
 H       -11.7887741002       10.4731430000        4.7116562298
 H       -11.1480490774       11.9246189960        4.0382858201
 H        -7.4413718465        7.0288541130        4.5542726491
 H        -6.5146866937        8.6172099501        4.5616969634
 H        -5.2608466552        6.6698917923        3.0556200130
 H        -5.4405923603        8.3283620723        2.4669258736
 H        -6.8042771207        6.4021374687       -2.7371271479
 H        -8.4855891188        6.5169744546       -2.9138573906
 H        -7.8191255870        4.4396429421       -0.9184152787
 H        -6.4537258200        4.5221033002       -2.0632805269
 H        -6.6254149108        0.8161494297       -1.7572771600
 H        -7.8339631313        0.1800448063       -2.8384222560
 H        -7.8580901030        0.0138810776        0.1088883059
 H        -7.4866338313       -1.4331457157       -1.0008853102
 H        -8.6054372728       -3.9454553682       -1.7724206493
 H        -9.6126634518       -2.7850270869       -2.3184357722
 H       -10.7971661901       -4.4473325166       -3.3728869016
 H       -11.6255005792       -4.6283678869       -1.8029011754
 H       -11.6410199530      -10.2521901922       -2.1886226673
 H       -10.6316189328      -10.3224215665       -0.8483246716
 H        -9.7671382000       -9.7092509982       -2.2735936372
 H        -8.2436169201       -6.8935858108       -0.7716920525
 H        -8.5005550263       -8.2386641694       -1.6662397623
 H        -8.9515613194       -8.3762866120        0.0750159007
 H       -10.9209106641       -5.4787119054        0.3272753107
 H       -10.1031554655       -6.6753352594        1.0357117256
 H       -11.7549070601       -7.0147170108        0.7505166722
 H       -10.2426943832       -0.2100742805        1.8589142682
 H        -9.0621978304       -1.4168698583        1.6592302311
 H       -10.5980839457       -1.8992726282        2.3593675942
 H       -12.2736393676       -2.7541881562        0.6729917350
 H       -12.0086640702       -2.3623417031       -1.2144514957
 H       -12.5204233566       -1.2146821645       -0.1438237759
 H       -11.0131642058        3.8143845706       -3.6262373849
 H       -10.0374467947        4.6370630718       -2.3803557310
 H       -11.0944043002        3.0748910129       -2.1659717929
 H        -9.8852629953        1.0749315042       -4.0580437941
 H        -8.1472929175        1.4563877455       -4.3989519712
 H        -9.5450666286        2.2330829177       -5.2839552921
 H        -7.4829706977        9.1180102393        0.2687737835
 H        -6.0245498950        9.4271180665       -0.7059613414
 H        -5.6900421572        9.1017210926        1.0564501315
 H        -5.0088041796        5.8250906341       -0.4840908243
 H        -4.3414609480        7.3342798234       -0.0966048801
 H        -5.1383135279        7.0004080606       -1.7830843935
 H        -7.4332547507       10.0256817323        5.3681350003
 H        -8.9748913720       10.7838238974        5.6715823756
 H        -8.2123874940       11.2510382403        4.0267054804
 H       -10.2659258659        8.8942518531        6.1653593750
 H        -9.4049791984        7.6281322408        5.5308320732
 H       -10.6585136199        7.8915607476        4.6000773603
 H       -15.5654790515        9.3823338193        2.8498305963
 H       -15.9436730522        9.0519173509        1.1798504186
 H       -15.2705046297       10.5815338784        1.5417263911
 H       -14.6676916818        7.3333858562        3.2460683198
 H       -13.2563184637        6.7658775576        2.2534660155
 H       -14.9681631617        6.7926127285        1.5726882610
 Na      -10.5226342438        8.6710397423        0.7951347767
