117

 C       -14.6916276538        8.1306944892       -0.8641011713
 C       -13.6055676350        8.5962557317        0.0718127329
 O       -12.5118606159        8.9559300740       -0.2736937925
 C       -14.0870915236        8.6552279891        1.6893258360
 C       -12.7496894276        9.3009711606        2.3723348628
 O       -11.7960481780        8.5822480347        2.4252158722
 C       -12.5384067926       10.8024784924        2.6968694381
 C       -11.3568857091       10.9524059927        3.7005066367
 C       -10.0710063112       10.2820835256        3.2714751330
 O        -9.6501250784       10.5393062696        2.1257881882
 C        -9.2086054669        9.3874218285        4.1155271319
 C        -8.2960469352        8.4373550210        3.2782220244
 O        -8.6591762164        8.1322924425        2.1324062019
 C        -7.0041048329        7.7476282028        3.7609708115
 C        -5.9297780374        7.2931173709        2.7414649228
 C        -6.7504427355        6.6875002045        1.5747094766
 O        -7.5474802755        5.7884318027        1.7148518811
 C        -6.5011665288        7.3643562131        0.0969062248
 C        -7.8191830816        7.2085280492       -0.8826178192
 O        -8.7352278621        7.9464321184       -0.7773626531
 C        -7.6154007724        6.2333082077       -2.0875806318
 C        -7.5955926077        4.6646556006       -1.9089842241
 C        -7.9979008728        3.9390715575       -3.2420316250
 O        -7.7839194372        4.2846930385       -4.4094203654
 C        -9.0402832063        2.7236623934       -2.8247745341
 C        -8.6678283782        1.8440059239       -1.6301106725
 O        -9.0931113839        2.1040012771       -0.5874962864
 C        -7.7891801757        0.5205575909       -1.7974277606
 C        -8.1268255675       -0.4581911883       -0.6125753932
 C        -9.5808091809       -0.9902128287       -1.0782227536
 O       -10.1224429993       -0.7313262114       -2.1354656041
 C       -10.3184976028       -1.8530701049       -0.0203861482
 C        -9.8541587051       -3.2605617272       -0.1586015063
 O        -9.4740101638       -3.8775853713        0.8683745425
 C        -9.6677203550       -3.8876070727       -1.5492835490
 C       -10.8183136664       -4.7968139480       -2.0687505086
 C       -10.3776838179       -6.3244278907       -2.1869716492
 O        -9.9450365189       -6.7461503274       -3.2597264906
 C       -10.3651737762       -7.1886624020       -0.9213216113
 C       -11.3679674523       -8.5160430535       -1.3537897270
 O       -12.5511722051       -8.2812471187       -1.3918519585
 C       -10.7028410147       -9.8862077020       -1.5642901205
 C        -8.8930343697       -7.7516538680       -0.7121667181
 C       -10.8275888077       -6.4266602852        0.3084486986
 C       -10.1533517266       -1.4946586718        1.4562227145
 C       -11.9310372093       -1.8537582094       -0.1367421211
 C       -10.3697185202        3.5276555876       -2.6168672938
 C        -9.1853764916        2.0667987675       -4.2358977876
 C        -6.3113951339        8.9147475764       -0.0565326494
 C        -5.0561708052        6.8852129548       -0.4603831717
 C        -8.3926340740       10.5767234558        4.8637900566
 C        -9.8987182638        8.4681001091        5.1030751255
 C       -15.4094496561        9.6212666715        1.7766800759
 C       -14.1087058860        7.2867092668        2.3409209552
 H       -15.0853542002        8.9838778743       -1.4199342131
 H       -15.6266026221        7.8463730845       -0.3884668010
 H       -14.2644923205        7.3819434941       -1.4332890030
 H       -13.4879844274       11.2708516402        2.9751133032
 H       -12.3371058133       11.3999363904        1.8132055047
 H       -11.7530483857       10.7954938568        4.7094573936
 H       -11.0971050524       12.0439355913        3.7769301252
 H        -7.4275401520        6.8088671754        4.3044963494
 H        -6.4250501291        8.3624584659        4.5012476857
 H        -5.3333369697        6.4572856727        3.2712690287
 H        -5.1641129064        8.1010690840        2.5453850451
 H        -6.8929629326        6.5875346303       -2.6722230968
 H        -8.5347218033        6.5234874457       -2.7465501465
 H        -8.4088320387        4.5486249302       -1.2092943590
 H        -6.6856061878        4.2114270451       -1.4335954276
 H        -6.7039154413        0.8441526416       -1.8937458942
 H        -7.9545914029       -0.0730562348       -2.6869432825
 H        -8.1734278157        0.1754536915        0.2944662115
 H        -7.3394693846       -1.2713405506       -0.5729987157
 H        -8.6752827548       -4.2871245372       -1.3448059436
 H        -9.4730518623       -3.0716587007       -2.2863085041
 H       -11.1202662317       -4.5417386196       -3.1653148896
 H       -11.6831222849       -4.8797331591       -1.3951398069
 H       -11.3289636480      -10.3924366614       -2.1985287683
 H       -10.7159910623      -10.4949811484       -0.5992571210
 H        -9.7015762791       -9.6625546593       -1.8984123627
 H        -8.1384140786       -6.9686098979       -0.7069304243
 H        -8.4604248981       -8.2305139741       -1.6409878604
 H        -8.9137969828       -8.4213819108        0.1410352525
 H       -10.9681626129       -5.3268560571        0.2002078662
 H       -10.0437420168       -6.3162043424        1.0281448107
 H       -11.6402983686       -6.7609247480        0.8470619782
 H       -10.2019875669       -0.3825350919        1.5773870302
 H        -9.1036123204       -1.6669012739        1.8186225161
 H       -10.8400632854       -1.9266652570        2.1340665027
 H       -12.3820437584       -2.2139209385        0.7474668665
 H       -12.1786132989       -2.2222035598       -1.1358436456
 H       -12.2172279271       -0.7806464814       -0.2571320863
 H       -10.9635830881        3.9051716151       -3.4760453740
 H       -10.0570735336        4.3726010792       -2.0247196578
 H       -11.1701932768        2.9261122527       -2.1630640942
 H       -10.0718856754        1.5642345010       -4.3848120835
 H        -8.2795181206        1.4209686292       -4.3063594948
 H        -9.1941066190        2.7004867723       -5.1167679824
 H        -7.3967804473        9.1840894390        0.0292560110
 H        -5.9500071474        9.2673056280       -0.9761419672
 H        -5.6347792100        9.1921936592        0.7515974119
 H        -4.6751416301        5.9311461104       -0.2540145891
 H        -4.3652670448        7.5211340596        0.1048860121
 H        -5.0493659266        7.0841322966       -1.5475952484
 H        -7.5328058407       10.1258542019        5.4976826210
 H        -9.0830359238       10.8732612526        5.6315347017
 H        -8.2276005143       11.4098696120        4.1091661153
 H        -9.9973714192        9.0239263691        6.0434900809
 H        -9.5252308254        7.5255896131        5.3950600476
 H       -10.8051819312        8.1578403612        4.6905519723
 H       -15.6153472853        9.6878991870        2.8717405368
 H       -16.2228427599        9.1863785968        1.2876342750
 H       -15.2846383443       10.6265865994        1.2692079829
 H       -13.8057298153        7.5669235404        3.3444055820
 H       -13.3253438730        6.6851647248        1.9034306793
 H       -15.0411343046        6.8578483985        2.3931675330
 Na      -10.5317355631        8.6005257542        0.5902061571
