117

 C       -14.5456860639        8.5529975188       -1.0123378737
 C       -13.2757600352        8.7876878717       -0.0056333733
 O       -12.1586437771        8.9292395176       -0.4295667979
 C       -13.7680380743        8.9283863322        1.4334134400
 C       -12.5368444509        9.2258670291        2.3073448803
 O       -11.7246166591        8.4487016022        2.7044845841
 C       -12.4951570632       10.7016828809        2.6690176125
 C       -11.3385503416       11.2954035472        3.5402512437
 C       -10.1104410510       10.4874302446        3.2264620925
 O        -9.6884297598       10.5686985330        2.0733304363
 C        -9.2936529879        9.5075099995        4.1443929573
 C        -8.5553255967        8.3345583448        3.2326413244
 O        -9.0809320353        7.9504212595        2.2164921482
 C        -7.2530177356        7.5068185617        3.7530594772
 C        -6.2375702472        7.0552607835        2.6349841934
 C        -6.8627996558        6.6024734560        1.2733418575
 O        -7.6637465986        5.6649108727        1.2890610605
 C        -6.4456384103        7.3968752048       -0.0453320957
 C        -7.4669203012        7.3483880971       -1.3310695044
 O        -8.3679084523        8.1015832168       -1.3305861779
 C        -7.2819157715        6.1670775233       -2.2857333495
 C        -8.2358073344        4.9824216563       -1.8841009885
 C        -8.1893579589        3.8905997301       -2.9702245409
 O        -7.3468843841        3.8772059295       -3.8306810210
 C        -9.2449948395        2.8391532259       -2.9458878391
 C        -8.8273809208        1.9980120616       -1.4907237048
 O        -8.9223319165        2.4984321535       -0.4489709060
 C        -8.0760303622        0.7571845409       -1.9217162267
 C        -8.2093449586       -0.3336912823       -0.8994580715
 C        -9.5459850998       -1.0322544982       -1.2493257659
 O        -9.6088964170       -1.3850119786       -2.4105607118
 C       -10.4386703485       -1.8239118824       -0.0478799365
 C        -9.5169622721       -3.2642154654       -0.1200695106
 O        -8.8780676853       -3.5033153557        0.9244206504
 C        -9.7584952473       -4.1588230433       -1.2745617183
 C       -11.1535719348       -4.8448312987       -1.2270195669
 C       -10.8252749590       -6.3800954812       -1.6632032934
 O       -10.6139670584       -6.6658426254       -2.8440481419
 C       -10.5775805324       -7.5467577649       -0.5908078464
 C       -11.5233206910       -8.7846701967       -1.1296792536
 O       -12.5975160017       -8.5844766460       -1.6423226504
 C       -11.0024914511      -10.2480477615       -0.7762167138
 C        -9.0525847721       -7.7433756796       -0.5439998785
 C       -11.1374182317       -7.1798363874        0.8136538298
 C       -10.1518245880       -1.0916842575        1.2976640429
 C       -11.9405057286       -2.1645155173       -0.3775245841
 C       -10.6287313335        3.5877041450       -2.8324788157
 C        -9.1017153171        2.0333214887       -4.2171823940
 C        -6.1096679376        9.0149528840        0.1414548345
 C        -5.0737194399        6.8847355141       -0.4618856850
 C        -8.2142988459       10.4489367067        4.7923359826
 C       -10.2573360302        8.8846098289        5.2199126473
 C       -15.0330403289        9.8940676181        1.6765219291
 C       -14.1830546731        7.3217737413        1.7146853047
 H       -14.4041378997        8.2661806760       -2.0374657396
 H       -14.9986949165        9.5847595304       -1.2481980397
 H       -15.2304590226        7.9342727883       -0.4358665022
 H       -13.4169295035       10.9629468089        3.1980425266
 H       -12.7041809802       11.3283239037        1.8160294788
 H       -11.6381390951       11.5083994750        4.5595396090
 H       -11.2139729622       12.3598312797        3.2265578394
 H        -7.5686124835        6.4857485547        4.1234573509
 H        -6.6270763244        8.1631953297        4.3476223043
 H        -5.8201842752        6.1341127632        3.1808426720
 H        -5.4150666838        7.7886169432        2.4866340849
 H        -6.2373251297        5.7552498080       -2.3683379302
 H        -7.3386178113        6.5091815588       -3.3154530118
 H        -9.1874330042        5.3418952295       -1.5181251042
 H        -7.6597721400        4.5817037772       -1.0051800219
 H        -7.0670801605        1.0546970997       -2.2438894774
 H        -8.3843238223        0.3453555120       -2.8911608359
 H        -8.0391572965        0.1733380387        0.1120693295
 H        -7.4746814601       -1.1555480097       -1.0933446803
 H        -8.9146941338       -4.9034815227       -1.3063971652
 H        -9.7590759685       -3.4351580857       -2.0723261481
 H       -11.8586452008       -4.5275009080       -2.0461630906
 H       -11.6047668123       -4.8926932643       -0.2291093399
 H       -11.7487533396      -10.9728384089       -0.5453178228
 H       -10.3412149599      -10.1234411362        0.1460466338
 H       -10.3957923860      -10.4907528796       -1.6147868320
 H        -8.4273200515       -6.9171790277       -0.2100312348
 H        -8.6884975131       -8.0087154317       -1.5867304022
 H        -8.7999064622       -8.5783727163        0.0738260391
 H       -11.9816977501       -7.7771354506        1.0955437452
 H       -11.4543422064       -6.0723077688        0.8700128588
 H       -10.5507908217       -7.3655182258        1.7575441032
 H       -10.2277189517       -0.0542365522        1.4119385142
 H        -9.0986412177       -1.2721062576        1.7162022453
 H       -10.7506624677       -1.6779261395        1.9988761290
 H       -12.1789129633       -2.9155944730        0.2662072559
 H       -11.9365700147       -2.5835454430       -1.3993738589
 H       -12.6211261229       -1.2839445331       -0.3152394982
 H       -10.4931429460        4.3484289914       -3.6773832716
 H       -10.9896587522        4.0516675295       -1.9286957710
 H       -11.5665082920        3.0423156763       -3.1666243395
 H        -9.6399486609        1.0231800083       -4.2045976699
 H        -8.0608037365        1.9437765888       -4.6654466007
 H        -9.7121289121        2.5306677795       -4.9509872669
 H        -6.8375859750        9.5613992337        0.7885738420
 H        -5.9578826639        9.3055580821       -0.9323778455
 H        -5.0662220791        9.0163741674        0.6669675800
 H        -5.0139881827        5.8053254555       -0.6929688521
 H        -4.2315459746        7.0087290296        0.3017059025
 H        -4.8320280873        7.5711050613       -1.2796471818
 H        -7.8873833034        9.8572899377        5.7449549996
 H        -8.6808647840       11.4554755429        5.0678814413
 H        -7.5379722054       10.6139348698        3.9685074784
 H       -10.7522904513        9.7176827794        5.7619181149
 H        -9.6145389783        8.3732362935        6.0284314267
 H       -11.0033334532        8.1512210638        4.9542006989
 H       -15.4531502201        9.9147489445        2.6878411415
 H       -15.7996233008        9.7312215506        0.9798952602
 H       -14.5928003205       10.8715713500        1.4650499274
 H       -13.9251849140        7.1358894125        2.8016426263
 H       -13.6343290148        6.7701374680        1.0683412493
 H       -15.2562449265        7.2141117849        1.6944977321
 Na       -9.9037900133        8.9836218892        0.5045152840
