117

 C       -14.0853772272        9.0879049473       -1.4788861992
 C       -13.0884959632        8.9314928610       -0.3116348545
 O       -11.9262258358        8.8035163853       -0.4447790158
 C       -13.7353664619        8.8945605939        1.1802828618
 C       -12.5813038627        9.4915829714        2.2486380030
 O       -11.7947053324        8.7348213081        2.6686459483
 C       -12.4945074263       10.9758290855        2.7813442824
 C       -11.2672600299       11.0743479976        3.6266451970
 C        -9.8932039787       10.4139133809        3.1067024240
 O        -9.4886059484       10.6654404850        1.9914515904
 C        -9.0515155077        9.4551099167        3.9685576812
 C        -8.6465409303        8.2050481020        3.1290851401
 O        -9.1494451264        7.9631532904        2.0401526563
 C        -7.7174741771        7.1976115302        3.7072845218
 C        -6.5622876126        7.1537193547        2.7049967761
 C        -7.0396418452        6.8099764449        1.2525516045
 O        -7.6448579033        5.8067160573        0.9376485351
 C        -6.3689542962        7.7190555629        0.0180091591
 C        -7.3969830514        7.4535178077       -1.0376768603
 O        -8.5155295729        7.9437229171       -0.9623650839
 C        -7.1564878599        6.3379110578       -2.1444477896
 C        -8.4405123266        5.5293229886       -2.6072986287
 C        -8.2233437735        4.0239095478       -3.1111466040
 O        -7.0692710997        3.7576432383       -3.3660521943
 C        -9.3050540854        2.8850282073       -3.1215158843
 C        -8.7521792553        2.1091306034       -1.7510195972
 O        -9.2565833746        2.3374579544       -0.7269636171
 C        -7.8322125717        0.9901151646       -1.8470534615
 C        -8.2166232784       -0.0379906311       -0.7495643375
 C        -9.4520096479       -0.9426479318       -1.2602213365
 O        -9.6227158622       -1.2657437605       -2.4186478363
 C       -10.1987027229       -1.7403959491       -0.1834519374
 C        -9.4763550143       -3.2243358803        0.0635786513
 O        -8.6749074205       -3.4266512203        1.0042810982
 C        -9.7441759446       -4.4135634188       -0.8577622762
 C       -11.0666930997       -5.2025345717       -0.5186766974
 C       -11.0962660743       -6.6330633937       -1.2385215085
 O       -11.0621081692       -6.6652084973       -2.4706124486
 C       -10.8765031262       -7.9350722739       -0.4705111177
 C       -11.7278093582       -9.2241138492       -0.9207792266
 O       -12.7560723084       -9.1848384418       -1.5374292131
 C       -11.1815538223      -10.4752975657       -0.2332816289
 C        -9.3716851185       -8.2062960217       -0.5904626060
 C       -11.2742233733       -7.8307579625        0.9990243997
 C       -10.2791344911       -1.2144892973        1.2516049549
 C       -11.7640411207       -1.8399375665       -0.7166191104
 C       -10.7667332330        3.4423847712       -2.6928862337
 C        -9.3923232735        2.2020455031       -4.5487707331
 C        -5.9545165272        9.1943303643        0.5058548196
 C        -4.9657467784        7.0497248162       -0.2814190595
 C        -7.7669027160       10.2799600555        4.5870730772
 C        -9.8451683417        8.7809949174        5.0990241152
 C       -15.1045334388        9.8406822824        1.3500434096
 C       -14.0494304215        7.4596841977        1.6486799105
 H       -13.9001259676        8.3251429020       -2.2553918918
 H       -13.7030308747        9.9942543535       -2.0706516877
 H       -15.1221730127        9.2861723971       -1.3110298567
 H       -13.3867787761       11.1974005213        3.3858696407
 H       -12.5800173294       11.7296797174        1.9555974724
 H       -11.5052845596       10.6056571156        4.5878432842
 H       -10.9962133177       12.1295977400        3.8925344351
 H        -8.1800109234        6.2478910221        3.6240803401
 H        -7.3465242369        7.6146222757        4.5919410381
 H        -5.9380084837        6.3116160741        2.8289994273
 H        -6.0007898689        8.0288356966        2.7806864662
 H        -6.4227270884        5.6192856704       -1.9024033522
 H        -6.7930949149        6.7493952302       -3.1196202422
 H        -8.9455546389        6.1029595104       -3.3562070050
 H        -9.1631423599        5.3574038386       -1.7688624745
 H        -6.7384033670        1.1617917251       -1.8884358908
 H        -7.8796971513        0.4860720864       -2.7411286470
 H        -8.2945622107        0.4758203342        0.1732058718
 H        -7.2432580721       -0.5840169062       -0.6944871392
 H        -8.9081061515       -5.0199092951       -0.7014620965
 H        -9.9248599222       -3.9154183827       -1.8486907965
 H       -11.7932720381       -4.6064365594       -1.0545895952
 H       -11.2848817888       -5.2110197468        0.5195761236
 H       -11.9714473174      -11.1357183990       -0.1137663574
 H       -10.7454196178      -10.1353838887        0.7585218586
 H       -10.4892589941      -10.9105899224       -0.9719250544
 H        -8.7816597030       -7.3485893476       -0.3475452980
 H        -9.0805988819       -8.6983877634       -1.5440487429
 H        -9.0242537364       -8.8843971703        0.1624963936
 H       -10.5581333588       -8.3777344912        1.6253313923
 H       -12.3480925396       -8.0787626579        1.1889855942
 H       -11.3868934259       -6.7889398469        1.2600385020
 H       -10.4483504572       -0.1262205553        1.1284794470
 H        -9.2240168019       -1.2226585821        1.6790584190
 H       -10.9637121150       -1.6252790107        1.9200292635
 H       -12.5162764165       -2.2629229142       -0.1020516400
 H       -11.6831177995       -2.5393149713       -1.5803599382
 H       -11.9428928657       -0.7622600241       -0.9596956709
 H       -11.3244643795        4.0580953244       -3.3536865476
 H       -10.7533635045        3.9758632987       -1.7773675770
 H       -11.3273560709        2.5792189894       -2.3792147484
 H       -10.0944280586        1.3838828151       -4.3986654537
 H        -8.4832781902        1.6278614167       -4.8795331925
 H        -9.5976947907        2.8874306511       -5.3515739199
 H        -6.7924207301        9.5829740647        1.0876940568
 H        -5.6280435785        9.7594038872       -0.3175306094
 H        -5.2355099379        9.1445616622        1.3142993179
 H        -4.8748233395        6.0539190907        0.0430230574
 H        -4.2832299197        7.7560065985        0.1680145251
 H        -4.5936802468        7.0793968985       -1.3267242830
 H        -6.9825589582        9.5857683069        4.9485033602
 H        -8.2333607263       10.8877254003        5.2850708085
 H        -7.4409821651       10.9027036532        3.8216906923
 H       -10.2638858891        9.3638888275        5.9495910126
 H        -9.1719722472        7.9874187784        5.3898538067
 H       -10.7723491379        8.3470101075        4.7606128242
 H       -15.2737839694        9.9590344194        2.4393190508
 H       -15.8849389419        9.2109995718        1.0758753142
 H       -15.1966695078       10.8679717340        0.8861140048
 H       -15.1193034709        7.3592981420        2.1551541826
 H       -13.2320007933        7.1767294142        2.3078347409
 H       -14.1601412206        6.7796079940        0.7541103976
 Na       -9.8440334675        9.1978166278        0.1597123928
