117

 C       -13.9574098584        9.2217878683       -1.4161327499
 C       -13.1049423686        9.1245662100       -0.2144630865
 O       -11.9227178133        8.7746737994       -0.3629580620
 C       -13.6649149377        8.9970161530        1.2252105465
 C       -12.5956643072        9.5350933432        2.1125403185
 O       -11.7686499800        8.6755638295        2.4427955160
 C       -12.3603303415       10.9787552574        2.5668263472
 C       -11.2725281873       11.1406137156        3.6568361551
 C       -10.0109530798       10.4471551830        3.1510814831
 O        -9.7019879504       10.7437370539        2.0021769681
 C        -9.0000733902        9.4478277302        3.9879423480
 C        -8.7085568501        8.2089592672        2.9983697525
 O        -9.1188884014        8.1074160190        1.8991730636
 C        -7.7867450472        7.0481167978        3.5085735445
 C        -6.5222663698        7.0045122232        2.7471563905
 C        -6.8872932075        6.8364980552        1.3161406221
 O        -7.5904475479        5.8592127085        0.9972002200
 C        -6.3444771576        7.7938717953        0.1602781581
 C        -7.5522599279        7.4611947640       -1.1013666491
 O        -8.6303404462        7.9016350478       -1.0517133240
 C        -7.1893200322        6.3328431617       -2.0035401287
 C        -8.3625754013        5.7159780744       -2.7844782989
 C        -8.1532338299        4.1625779301       -3.0395179105
 O        -7.1177961659        3.6206910667       -3.3498064775
 C        -9.3159877640        3.0665873828       -2.9386691021
 C        -9.0015813441        2.0646047849       -1.8214755944
 O        -9.4008787376        2.3564423189       -0.7328837191
 C        -7.7999019906        0.9010790697       -1.9985116467
 C        -8.0799639035       -0.1067726126       -0.8176564203
 C        -9.1873774870       -1.0151390362       -1.1840812420
 O        -9.4258476355       -0.9849036914       -2.3599766212
 C       -10.1775204622       -1.7539585680       -0.1830370527
 C        -9.6111695533       -3.2169413706        0.0204597684
 O        -8.7919331781       -3.0914115325        0.9034161561
 C        -9.8473773935       -4.5095580693       -0.8278846186
 C       -11.1541101193       -5.3546127247       -0.4913895201
 C       -11.1704473036       -6.7563732638       -1.1729548809
 O       -11.3728799726       -6.7803994191       -2.3601835104
 C       -10.8722180359       -8.0385325999       -0.2583586144
 C       -11.7132596314       -9.3119968971       -0.8181435295
 O       -12.6904809089       -9.1851082688       -1.5055205564
 C       -11.3840517554      -10.7976337402       -0.1943052101
 C        -9.3776017056       -8.3269535053       -0.5429902745
 C       -11.2777247266       -8.0851585370        1.2785751078
 C       -10.2163030080       -1.1370998522        1.2945904841
 C       -11.6611463116       -1.9625319767       -0.6730227326
 C       -10.7744911182        3.5176452005       -2.8179202524
 C        -9.2553949170        2.3939009319       -4.3911949214
 C        -6.0143825435        9.2914427994        0.4191609898
 C        -5.0043881404        7.0754369617       -0.1717125888
 C        -7.6332772041        9.9864882217        4.3757167862
 C        -9.7768919763        8.7562017361        5.1910607364
 C       -15.0184307869        9.8576142309        1.1761192532
 C       -13.9458506534        7.5637496598        1.4557202242
 H       -13.7783663185        8.3525430240       -2.0446845172
 H       -13.5358572771       10.0192439959       -2.1310740106
 H       -15.0821125853        9.5219624024       -1.3507484248
 H       -13.3537483839       11.4112257939        2.7944028340
 H       -12.0364649930       11.5085393309        1.6654298710
 H       -11.5304297721       10.7587469091        4.6640953992
 H       -10.8660980924       12.1846672147        3.7691532840
 H        -8.3449519138        6.1416693770        3.2534454525
 H        -7.4768208888        7.2818295667        4.4846758923
 H        -5.8709068639        6.1473152438        2.9565472945
 H        -5.9896004526        7.9037339374        2.9730176874
 H        -6.7377811814        5.3382934369       -1.4768818715
 H        -6.4709317849        6.5537127377       -2.7056015737
 H        -8.4597364627        6.1493739171       -3.7776006515
 H        -9.3614177892        5.8028453306       -2.3105235053
 H        -6.8388258183        1.3472079871       -1.9467539778
 H        -7.6061260835        0.2829151146       -2.8789740980
 H        -8.4178155051        0.5691261866        0.0767148699
 H        -7.1098247248       -0.4964008317       -0.5012978362
 H        -9.0548198047       -5.1615572801       -0.3370809833
 H        -9.7921572660       -4.1979394807       -1.7889537889
 H       -12.0394599605       -4.7955368316       -0.7309020308
 H       -11.0820413308       -5.4900852997        0.6124784581
 H       -12.2164826740      -11.4361606670       -0.5962016472
 H       -11.3566989129      -10.7370071417        0.8967449473
 H       -10.5459856703      -11.1799334952       -0.6951196678
 H        -8.8142262824       -7.5307048642       -0.1763577825
 H        -9.2053232098       -8.6085567817       -1.5631181002
 H        -8.9873500970       -9.1377473214       -0.0179465828
 H       -10.4325667891       -8.4354911659        1.8918668567
 H       -12.2165486264       -8.7032468828        1.4510480510
 H       -11.8109182828       -7.0560778179        1.5179009775
 H       -10.7013661778       -0.1981546526        1.2468892716
 H        -9.1616342279       -0.9174597595        1.6441570935
 H       -10.7681718853       -1.7283772947        2.1109157009
 H       -12.4205051693       -2.2817642423       -0.0224477770
 H       -11.5793589862       -2.7406003391       -1.3992744900
 H       -11.8559331869       -0.9362042280       -1.0431450090
 H       -11.1488660214        4.0452362450       -3.6951329264
 H       -10.9127559621        4.2459547856       -2.0796595267
 H       -11.3670843832        2.6701454740       -2.4701724452
 H        -9.6450814847        1.2724405566       -4.2950658542
 H        -8.2011232915        2.1447805549       -4.5965574764
 H        -9.5287780787        3.0144870279       -5.2365517063
 H        -6.6692473952        9.6969511510        1.1475409269
 H        -6.0674848545        9.8188913331       -0.6231187054
 H        -4.9975349635        9.3998471575        0.9685549471
 H        -5.2456762810        6.0023211910       -0.3639842041
 H        -4.1539476922        7.3660371667        0.4468533841
 H        -4.6373691517        7.4068104288       -1.1276203156
 H        -6.9559634166        9.1704922886        4.6036231805
 H        -7.7361001378       10.8927135531        5.0983395487
 H        -7.3485565658       10.3207663028        3.3896252257
 H       -10.1473688731        9.4944664021        5.9020587151
 H        -9.0604183721        7.9861451074        5.6633566149
 H       -10.7551244677        8.3726381164        4.9535467647
 H       -15.4525074582        9.9843816986        2.1672476081
 H       -15.6979660336        9.1951246703        0.6519948102
 H       -14.9939604756       10.8472031617        0.7461426792
 H       -15.0716200408        7.5452605329        1.6319949948
 H       -13.3833191965        7.1550512615        2.2888131966
 H       -13.8607704627        6.9555515423        0.5088225418
 Na       -9.7760846877        9.2280370916        0.2711680091
