117

 C       -13.8292509789        9.3757180481       -1.5174245537
 C       -13.0266670731        9.0936361703       -0.3163170240
 O       -11.8014970045        8.8555728891       -0.4171257263
 C       -13.7449512985        9.1146153833        1.1476541171
 C       -12.5101787022        9.5408078005        2.1382859187
 O       -11.6052007683        8.7036398771        2.3817591568
 C       -12.2320251306       11.0051580899        2.4458733813
 C       -11.3365545219       11.1022243711        3.7104397026
 C       -10.0245903566       10.4477708903        3.1686877830
 O        -9.6702214993       10.8212014244        2.0532083828
 C        -9.1105893454        9.3459403688        3.8529164224
 C        -8.8441452010        8.0858132885        3.0210457885
 O        -8.9999071763        8.1231417527        1.8045330597
 C        -7.8814115934        6.9322739141        3.5620136977
 C        -6.4359969862        6.9682086764        2.9145185434
 C        -6.7889217570        6.8357866169        1.2406143582
 O        -7.4992507979        5.9040847629        0.9972155407
 C        -6.4138465546        7.7064906095        0.0015906683
 C        -7.5207297719        7.2988423128       -1.0499705550
 O        -8.5623138252        8.0054111483       -1.1726542120
 C        -7.1391145259        6.1618572143       -1.8727101878
 C        -8.2677050216        5.7175327800       -2.9051544890
 C        -8.1497284996        4.1840085746       -3.0493436392
 O        -6.9822469923        3.8380583643       -3.2129924777
 C        -9.3089776340        3.1798619928       -2.9617154335
 C        -8.9533632299        2.1535732286       -1.7810102372
 O        -9.6121794850        2.2504076561       -0.6881332162
 C        -7.9168448870        1.1132634417       -1.8438026065
 C        -7.9498077133       -0.0637877829       -0.7679955180
 C        -9.2160076701       -0.9370474616       -1.2074989701
 O        -9.5358360584       -1.0263858026       -2.4052461197
 C       -10.2086514538       -1.7055371820       -0.2326460854
 C        -9.5089304672       -3.2062617715        0.1406633624
 O        -8.6072236798       -3.3318019391        0.8802851240
 C        -9.9199648413       -4.5184513605       -0.7095851481
 C       -11.1601952803       -5.3976032544       -0.2443842363
 C       -11.3023890682       -6.8768081536       -1.0036484163
 O       -11.6397012796       -7.0040143329       -2.1289144888
 C       -10.9472012809       -8.2849380582       -0.0989334242
 C       -11.7935260716       -9.4687460319       -0.7015151581
 O       -12.6299745085       -9.1949586583       -1.5245855378
 C       -11.5717025692      -10.9265511934       -0.2855539491
 C        -9.3955261318       -8.4806401166       -0.3919373404
 C       -11.1851103923       -8.1438421526        1.4098930903
 C       -10.2571615998       -0.9136345577        1.0781458771
 C       -11.6126512239       -1.8958268867       -0.8251725498
 C       -10.7766156143        3.7217305273       -2.9093353889
 C        -9.1559566150        2.3857546397       -4.3417959691
 C        -6.3756365977        9.1919132907        0.2825037941
 C        -4.9964227270        7.0720182518       -0.2543229507
 C        -7.6875524316        9.8674437968        4.1054120780
 C        -9.7171264712        8.9004210953        5.3097597842
 C       -15.0507621605       10.0596756206        1.1711373688
 C       -13.9903601005        7.5289988994        1.2856731745
 H       -13.9808436542        8.5055632839       -2.2268001357
 H       -13.5134691527       10.1581060331       -2.1915950688
 H       -14.8078789233        9.7371375430       -1.1859663533
 H       -13.2085317273       11.4955042590        2.5000645569
 H       -11.7204689604       11.3755341867        1.5589739396
 H       -11.6902385781       10.4369380927        4.5354985187
 H       -11.0511243302       12.0955560324        4.0520644122
 H        -8.3024515020        6.0997757943        2.9730116983
 H        -7.7962881195        6.8781358274        4.6886246292
 H        -5.7762674211        6.0973332372        3.2043640624
 H        -5.8233603612        7.9376867303        3.1097836802
 H        -7.0658380869        5.1867969713       -1.3496402219
 H        -6.1573078465        6.3076627148       -2.3613686618
 H        -8.0345359787        5.8748978713       -4.0038214683
 H        -9.2149720259        6.1809769966       -2.7131256134
 H        -6.9814893908        1.5587698964       -2.0932128082
 H        -8.0074186784        0.4542629674       -2.8059763553
 H        -7.9300821257        0.3174112181        0.3100678257
 H        -7.0640350458       -0.7039037376       -0.8948951682
 H        -9.0242242767       -5.1438085166       -0.4692710095
 H       -10.1675938340       -4.1901512368       -1.7332773453
 H       -12.0312252870       -4.7381907138       -0.5443111600
 H       -11.1941678635       -5.4684365920        0.8947990064
 H       -12.1255190498      -11.6142348600       -0.9905274945
 H       -11.8172911836      -10.9774217196        0.7170517148
 H       -10.5273038037      -11.1269806402       -0.5104838652
 H        -8.9458490059       -7.7589363844        0.2590866281
 H        -9.1798113028       -8.4146002364       -1.3869582104
 H        -8.9272014350       -9.4268631790       -0.1599379853
 H       -10.1562221408       -8.2620772610        1.8717240302
 H       -11.8446381988       -8.9237885630        1.8600067937
 H       -11.7385914220       -7.2173478735        1.5991868043
 H       -11.0540129527       -0.1200665555        1.1934627630
 H        -9.2917342241       -0.5528910268        1.2910564417
 H       -10.4937519227       -1.6232019262        1.9380579328
 H       -12.3694451071       -2.3233727759       -0.0809764559
 H       -11.6247556191       -2.5911565721       -1.6144436918
 H       -11.9012113462       -0.9263763041       -0.9959371169
 H       -11.0370820856        4.4423834186       -3.6753796733
 H       -10.7403885260        4.4404766432       -2.0420815382
 H       -11.5438936706        2.9672363600       -2.6738520779
 H        -9.4145220014        1.3575438064       -4.3607004644
 H        -8.0672508261        2.3110932134       -4.4959989111
 H        -9.3970422245        3.0514188934       -5.2317982012
 H        -7.1603311969        9.5371672615        1.0603500200
 H        -6.5179276020        9.6592708528       -0.7544391207
 H        -5.3988549070        9.4135541017        0.7760815576
 H        -5.1139218326        6.1691433195       -0.8789920073
 H        -4.4019646486        7.0335970107        0.6468507465
 H        -4.3798680488        7.7247865169       -0.8514633018
 H        -7.2248367434        9.0051445054        4.5789309278
 H        -7.7573790449       10.8129785534        4.6941900144
 H        -7.1367629253        9.9104515527        3.0571900127
 H        -9.9749739824        9.8633609610        5.7050829151
 H        -8.9884118000        8.3859709197        5.9385470850
 H       -10.7691328238        8.5401144214        5.4037344618
 H       -15.4790325963       10.0139277770        2.1528612273
 H       -15.8565367449        9.7267454417        0.4559276307
 H       -14.8555656024       11.0943246392        1.0685528762
 H       -14.9641557774        7.2983294707        1.4280197294
 H       -13.3670984378        7.2154154474        2.2140261784
 H       -13.6348854811        7.0092036650        0.4043175715
 Na       -9.8098919589        9.3682715226        0.3314487407
