117

 C       -13.8220932081        9.6457538228       -1.8194344585
 C       -12.9195255718        9.2607529372       -0.6048403723
 O       -11.7165744135        9.1360435050       -0.7978208394
 C       -13.6224999422        9.2831482890        0.9206840772
 C       -12.4520586651        9.4634078207        1.8647496385
 O       -11.6405443652        8.6669970572        2.3314836844
 C       -12.3890177403       10.9127701576        2.6119375018
 C       -11.2760865902       10.8814959684        3.6860924937
 C        -9.9051115843       10.3667986072        3.0705523433
 O        -9.3554745614       10.9017946269        2.1176824745
 C        -9.1077520905        9.3158908307        3.9300544280
 C        -8.8362808686        7.9796755277        3.0762627960
 O        -9.1326807670        7.9208317456        1.9186209819
 C        -7.9223541772        6.9343116627        3.6622938132
 C        -6.6360769775        7.1147300590        2.8041653303
 C        -6.8884863524        6.4724937247        1.3647344498
 O        -7.3802939738        5.4108851571        1.0186566920
 C        -6.4622129958        7.6140927313        0.0439880099
 C        -7.4244912045        7.4319849301       -1.2151261943
 O        -8.3701884168        8.1583135236       -1.3470463943
 C        -7.2187297180        6.0356639631       -1.7944842242
 C        -8.1728015565        5.6043235043       -2.8770498555
 C        -7.9391242928        4.1170412757       -2.9930432347
 O        -6.7982329324        3.7034892826       -3.0807025966
 C        -9.2172864585        3.2398486033       -3.0002599291
 C        -9.1874355361        2.2495556102       -1.8343415523
 O        -9.9285872619        2.3818849670       -0.9876825515
 C        -7.9076626230        1.2691165945       -1.6120499082
 C        -8.0390829600       -0.1319115916       -0.9228037890
 C        -9.2424879545       -1.0641482880       -1.5044706993
 O        -9.6560357550       -1.1362744759       -2.6104189420
 C       -10.1115118552       -1.8331529170       -0.2945198187
 C        -9.5781467578       -3.2948346379        0.0130674409
 O        -8.6123826633       -3.4620737950        0.7677641777
 C       -10.1347301900       -4.5558754736       -0.6460917251
 C       -10.9926610517       -5.4855992703        0.2574289663
 C       -11.3358568426       -6.9304060259       -0.5283533303
 O       -11.9357548301       -6.8159984846       -1.5662611447
 C       -10.9350745292       -8.4160127700        0.0859178079
 C       -11.9171910724       -9.4826207980       -0.6355986720
 O       -12.7193374308       -9.2398893596       -1.4941393629
 C       -11.6303155912      -10.9709508114       -0.2014728160
 C        -9.4823989891       -8.7421746499       -0.2273832709
 C       -11.1830824050       -8.3807504905        1.6963417515
 C       -10.2383828389       -0.9576995141        0.9951876922
 C       -11.5218102045       -2.0103697126       -0.9298941890
 C       -10.5318446279        4.0110463555       -2.9478599879
 C        -9.2578930892        2.2837089923       -4.2241377608
 C        -6.5444874585        9.1626049090        0.4347979994
 C        -4.9888154109        7.5110035462       -0.2761376997
 C        -7.6564803746       10.0901394874        3.9786205314
 C        -9.6049722138        9.1493395164        5.2948512747
 C       -14.8524475400       10.1866043195        1.2515267328
 C       -14.0548274980        7.7479788594        1.1423621172
 H       -14.1183985705        8.8178276687       -2.3565571296
 H       -13.3760802376       10.3253692908       -2.5487463907
 H       -14.7339498881       10.2253488085       -1.6420159966
 H       -13.2817229982       11.1126630731        3.2249879863
 H       -12.2075582835       11.7202383380        1.8512312528
 H       -11.5298802665       10.1738587387        4.4313941053
 H       -11.1324619054       11.9229200554        4.0121255561
 H        -8.3463135980        5.9222785241        3.4978595478
 H        -7.5503991062        7.1862645264        4.6302197317
 H        -5.8264222193        6.5685196099        3.2788835379
 H        -6.3000150784        8.0711677971        2.5934454176
 H        -7.3090358474        5.2016113560       -1.0788190551
 H        -6.2313553313        5.9679031437       -2.2190516023
 H        -8.0378833645        6.2406653373       -3.7108969072
 H        -9.2294220497        5.8201051191       -2.5560123725
 H        -7.1266234849        1.9569166525       -1.1335373832
 H        -7.4142369736        0.9911217501       -2.5145186385
 H        -8.0920390495        0.1072427848        0.1199755220
 H        -7.1594705824       -0.7755573786       -0.9751929321
 H        -9.2770915315       -5.2461880943       -0.7248134305
 H       -10.7252687440       -4.4032490726       -1.5358727563
 H       -11.8453069672       -4.9300682304        0.6403341028
 H       -10.3520575105       -5.6154752160        1.1300688192
 H       -11.6520788874      -11.4951848579       -1.1408468984
 H       -12.4315372695      -11.2184186012        0.5465560889
 H       -10.6548217162      -11.1222299496        0.2202428214
 H        -8.7648636336       -8.0139909342        0.2157131306
 H        -9.3888609869       -8.9533105511       -1.3580281694
 H        -9.2046756085       -9.7542783436        0.1242898574
 H       -10.5702001730       -7.6953047277        2.1584607480
 H       -10.8731234222       -9.3242651920        2.0831531796
 H       -12.2517061482       -8.0582350764        1.8101219428
 H       -10.6994529717       -0.0780690075        0.7436318535
 H        -9.4319417363       -0.8683489444        1.7705318320
 H       -11.0783195501       -1.4362593452        1.4594359222
 H       -11.8804754380       -2.7139552937       -0.2319115534
 H       -11.4993053922       -2.6112301369       -1.8911823365
 H       -12.2590967397       -1.1006335404       -0.9616225249
 H       -10.4438163035        4.8439011158       -3.6874842276
 H       -10.7251449694        4.5619267469       -2.0257163143
 H       -11.3942898092        3.3756167666       -3.2275965367
 H        -9.9654823267        1.4245682573       -4.0377537795
 H        -8.3437377800        1.7817346834       -4.3613664758
 H        -9.4221096587        2.8505561001       -5.0395967347
 H        -7.4621081348        9.4463260520        0.7516419342
 H        -6.2916817606        9.6959597423       -0.4709731043
 H        -5.7622363031        9.4169543598        1.1636454140
 H        -4.6949148063        6.5702491853       -0.7119663904
 H        -4.4444964953        7.7490669120        0.6291899758
 H        -4.6327695206        8.2226670979       -1.0386114202
 H        -6.9339862666        9.6091965536        4.6216814670
 H        -8.0030036738       11.0508910922        4.3739964412
 H        -7.3007255250       10.1296585543        3.0392076437
 H        -9.7555219643        9.9917917607        5.9574325110
 H        -8.8963095783        8.4413257899        5.7333914409
 H       -10.5454434101        8.7323101094        5.2287373948
 H       -15.0903475169       10.2463470892        2.3346303314
 H       -15.7025999012       10.0050284116        0.6451097313
 H       -14.5710934443       11.2582612396        0.9919581466
 H       -15.1995634550        7.7966858655        1.3072685059
 H       -13.6966264977        7.3440984969        2.0399120913
 H       -13.7119510166        7.0906717765        0.3110415649
 Na       -9.7294655278        9.5602653650        0.1802768326
