117

 C       -13.4609912795       10.5803314899       -2.2408932768
 C       -12.7956002150       10.1908545120       -0.9659270905
 O       -11.6193925745       10.5154062263       -0.8671163979
 C       -13.7203508376        9.8518866256        0.2599952503
 C       -12.7171108767        9.7103900305        1.3988714953
 O       -12.0709001520        8.6949997723        1.6604948835
 C       -12.3193808351       11.0309312444        2.1894001926
 C       -11.4428599337       10.7136834487        3.4453291397
 C        -9.9866252010       10.2051847163        2.9279615726
 O        -9.7472663596       10.2487312499        1.7460640915
 C        -8.9425715021        9.4713639475        3.8682693837
 C        -8.2842436766        8.2204447667        3.0819534643
 O        -8.7177921127        7.7466585536        2.0377550613
 C        -7.0852874267        7.5640901604        3.8176370161
 C        -5.8136439403        7.3719780775        2.9391562532
 C        -6.2500988174        6.6824378815        1.5211763121
 O        -6.7855329648        5.5813190134        1.4247472916
 C        -6.0460019903        7.5752409089        0.1750217500
 C        -7.3096880677        7.2674960105       -0.7988638815
 O        -8.4870406396        7.6184839647       -0.5658510422
 C        -6.9787116845        6.0869137544       -1.6848801468
 C        -8.2269457036        5.1591173581       -2.2867180633
 C        -7.9225066338        3.8056967032       -2.9244809396
 O        -6.8554801258        3.1896615322       -2.9760669644
 C        -9.2214300157        3.0755890936       -3.2029218794
 C        -9.4074147327        1.9843661300       -1.9833397360
 O       -10.3722533351        1.9873727163       -1.3719237260
 C        -8.2072066532        1.0564155343       -1.5329108507
 C        -8.7642789187       -0.1744571213       -0.7005567537
 C        -9.6793255551       -1.2156456349       -1.5029225465
 O        -9.4233323205       -1.5951970849       -2.5888837523
 C       -10.7126157640       -1.9445506926       -0.5842065396
 C        -9.8653771754       -3.4182618903       -0.4587475408
 O        -8.7905097244       -3.4245199289        0.1689660223
 C       -10.5231339117       -4.6537679052       -0.7835295093
 C        -9.9290084738       -5.8979463949       -0.0031555961
 C       -11.0714802601       -6.8528288614        0.3923059658
 O       -12.1553190388       -6.2992696230        0.5667955778
 C       -10.8724388078       -8.3796479974        0.6329250661
 C       -12.0906543173       -9.2339167382        0.0036368734
 O       -12.8684527943       -8.7696024847       -0.8031930186
 C       -12.1469968699      -10.7609379524        0.4543311968
 C        -9.5377013143       -8.8877648144        0.0674492995
 C       -11.1008058140       -8.6380036040        2.2681370489
 C       -10.9724643160       -1.4742327635        0.8014261239
 C       -12.0411494445       -1.9132548177       -1.3942205290
 C       -10.4566913515        3.9610792176       -3.2708294184
 C        -8.9891277987        2.4713036065       -4.6786119215
 C        -5.8574013040        9.0902848368        0.2902797618
 C        -4.6803139558        6.9784292002       -0.3327312656
 C        -7.5896689468       10.4166656475        4.0355239141
 C        -9.3463876257        8.9309839480        5.1461878432
 C       -14.9964438652       10.8560022228        0.3670436582
 C       -14.3373125462        8.3651501526       -0.0469731061
 H       -13.0550082779       11.4220394288       -2.7346764970
 H       -14.5757976760       10.6808954798       -2.2560026675
 H       -13.4781064826        9.6592981497       -2.9353907101
 H       -13.2311447075       11.4566365478        2.5470091501
 H       -11.7510045875       11.6235272551        1.4458731547
 H       -11.8180987311        9.9099436061        4.0975649744
 H       -11.2187269355       11.6185567864        4.0633238571
 H        -7.4803192451        6.5372135421        4.0895974552
 H        -6.8825771109        7.8093083194        4.8411281753
 H        -4.9760857427        6.6952689722        3.3327932014
 H        -5.3017855571        8.2970667591        2.6603217905
 H        -6.3852677404        5.4326748517       -1.0739521764
 H        -6.4625792370        6.3028719286       -2.6864530811
 H        -8.9978119479        5.8020683282       -2.6540514821
 H        -8.6282928464        4.8886588942       -1.2480676483
 H        -7.4949009663        1.5417358049       -0.8053696161
 H        -7.6925149981        0.6722041215       -2.4075392308
 H        -9.3083366832        0.2495830925        0.1504918084
 H        -7.9199700118       -0.8768084679       -0.3823295497
 H       -10.2750790410       -4.8359914775       -1.8775336259
 H       -11.6029777205       -4.8094181985       -0.8899373113
 H        -9.3998272136       -5.4955374101        0.8737426533
 H        -9.0877352556       -6.3106158375       -0.5819627598
 H       -11.4576074404      -11.2960328649       -0.1554476217
 H       -13.1641702695      -11.1210376434        0.1089499030
 H       -12.1455460412      -10.9119943045        1.5065480919
 H        -8.6792916114       -8.3244129655        0.3692842988
 H        -9.5293517626       -8.7988858625       -1.0470868575
 H        -9.4582597812       -9.8483010693        0.4827234709
 H       -10.1520673397       -8.7369981548        2.7808738055
 H       -11.7459954402       -9.5400823090        2.2082668094
 H       -11.7328411064       -7.7181381951        2.6507747088
 H       -11.0350781495       -0.4225513254        1.0184265553
 H       -10.3296056541       -1.9880462136        1.6051307211
 H       -11.9075477780       -2.0338352023        0.9317692238
 H       -12.5761218649       -2.8016621957       -1.2209227193
 H       -11.8886026989       -1.7436593274       -2.4918292388
 H       -12.7715731319       -1.1516782977       -1.0019482617
 H       -10.2063882067        4.7513589680       -3.9741831669
 H       -10.6479269637        4.3362148499       -2.2948348531
 H       -11.3701220209        3.5042384097       -3.5733884410
 H        -9.7426752327        1.6585046510       -5.1256777568
 H        -7.9068449524        2.2037273692       -4.6295593147
 H        -9.1128092908        3.2266851951       -5.4478144142
 H        -6.8023129483        9.6335013449        0.2671029756
 H        -5.3268694155        9.5491001741       -0.6259959831
 H        -5.2092945850        9.5091546252        1.1469890424
 H        -4.4959976913        5.9410201655       -0.1463275926
 H        -3.8683222305        7.3519812178        0.3049018644
 H        -4.5365797644        7.2562504583       -1.3949222468
 H        -7.4909465169       10.4159942078        5.1217355121
 H        -7.6790794741       11.5493589410        3.6719401333
 H        -6.6982691352       10.0109075726        3.5112279665
 H        -9.7925940841        9.7704739179        5.7426103740
 H        -8.6582096934        8.3235207898        5.7676222427
 H       -10.0367743049        8.1690688999        4.8846443324
 H       -15.5643198981       10.9165617805        1.2999032558
 H       -15.6999513338       10.6204471985       -0.3742382690
 H       -14.6657347773       11.9131181962        0.1190905210
 H       -14.0854926791        7.8487178110       -1.0242817400
 H       -15.4154795555        8.4595247711       -0.1047405790
 H       -14.2030029337        7.6603031033        0.7975552713
 Na      -10.1207075274        8.4472787490        0.3291790819
