117

 C       -11.8458330227       11.5989799448       -1.9737601078
 C       -12.1863198354       10.3069403474       -1.3284464123
 O       -11.3102114599        9.4714495090       -1.3517276699
 C       -13.5098599508       10.2858469973       -0.3480193987
 C       -12.7895193774        9.6952689585        0.8472673037
 O       -12.3572792801        8.5666604681        0.7651891018
 C       -12.5155666462       10.5893080955        2.1821530049
 C       -11.5966170096        9.9931176969        3.2650079678
 C       -10.0857850566        9.9478431207        2.9200485601
 O        -9.7177445384       10.4020548024        1.8640359858
 C        -8.9818023177        9.6297353240        3.9875842326
 C        -8.1528059688        8.5214730147        3.2715402040
 O        -8.5218568187        7.9939722075        2.2044084922
 C        -6.7496582345        7.8809233340        3.7507572110
 C        -5.7441322304        8.4069498025        2.6821345199
 C        -5.7888236147        7.1777849701        1.6367183966
 O        -5.7377255517        6.0500851221        2.0681606083
 C        -5.9203116332        7.3545954775        0.0637360826
 C        -7.1413405090        6.6855547934       -0.5446025527
 O        -8.0702290043        7.5165982619       -0.8478337150
 C        -7.2967680590        5.2094250118       -0.8245756642
 C        -8.4492431481        4.7655722211       -1.7442961549
 C        -8.0462387890        3.6541851116       -2.6861136258
 O        -6.8355595752        3.6460701214       -2.9785390246
 C        -9.1199360072        2.8598136068       -3.2227688552
 C        -9.5490569616        1.5406810928       -2.2234769333
 O       -10.7001667001        1.5802712319       -1.9673725072
 C        -8.5454291584        0.5141583179       -1.6580792976
 C        -9.3247547362       -0.3593159948       -0.7347884321
 C       -10.1946549193       -1.3536702504       -1.5615942145
 O        -9.9460905869       -1.4584772891       -2.6981912481
 C       -11.2274387895       -2.2233880944       -0.9160739228
 C       -10.5941424094       -3.7067146257       -0.6854132744
 O        -9.4111720765       -3.7879837554       -0.4090238868
 C       -11.4093248664       -5.0269874139       -0.7246423780
 C       -10.5468343221       -6.2207090472       -0.3236741440
 C       -10.6832412062       -6.6746985615        1.1543459089
 O       -10.4705586137       -5.8359011008        2.0117972421
 C       -10.8448547542       -8.1656487233        1.4245396183
 C       -12.1642082374       -8.7893185242        0.6975317074
 O       -12.9847738415       -8.0531531456        0.1565109327
 C       -12.3038478326      -10.3430109485        0.5346647408
 C        -9.7301371347       -8.9107107548        0.7161438951
 C       -10.8539491713       -8.2671997502        2.9597445043
 C       -11.6329635413       -1.9180870555        0.4856712900
 C       -12.6871740485       -2.2429414262       -1.7601173370
 C       -10.3577552113        3.7409787408       -3.6158822594
 C        -8.6811284199        2.0807233672       -4.5429711013
 C        -5.8597624176        8.7932885612       -0.3775996828
 C        -4.6823165636        6.5759279821       -0.5179737694
 C        -8.1521208632       10.9124044764        4.0988073196
 C        -9.4131716875        9.1442939743        5.4215852599
 C       -14.2692225553       11.6300647471       -0.1919722167
 C       -14.3944880106        9.1873386570       -0.9980818857
 H       -12.2513261865       12.4839293247       -1.5711121170
 H       -12.0675398619       11.5875555168       -3.0310198820
 H       -10.7515735748       11.8260122423       -2.0355419452
 H       -13.4756544180       10.6111860253        2.6931078556
 H       -12.4074986749       11.6123056050        1.7923330064
 H       -12.0107245465        9.0172561427        3.4812327238
 H       -11.6224276109       10.4454982412        4.2531981100
 H        -6.7853054507        6.7896464921        3.7096816039
 H        -6.5072634018        8.1171324981        4.8022528589
 H        -4.6968721545        8.4370924332        2.9587755694
 H        -6.1157007621        9.2835470898        2.2463624982
 H        -7.5035845195        4.8079146353        0.1031449030
 H        -6.3594483131        4.6717166794       -1.2183117907
 H        -8.6892527182        5.7388788289       -2.1404407327
 H        -9.3963198258        4.4838727619       -1.2406821234
 H        -7.7811655851        0.9242271456       -1.0002259090
 H        -8.1381732181       -0.0319251018       -2.5461934331
 H        -9.9326350729        0.1502592470       -0.0310899314
 H        -8.5465239843       -0.9601814002       -0.2269674638
 H       -11.5556766141       -5.1775366581       -1.7728592558
 H       -12.5129116445       -5.0619597876       -0.4763293782
 H        -9.5037457226       -5.8560829761       -0.5693516640
 H       -10.7995167187       -7.0881855480       -0.9370751178
 H       -11.9389028258      -10.6875714163       -0.3956227393
 H       -13.3988301414      -10.5735644064        0.6108920806
 H       -11.7248042170      -10.8358754592        1.2888500458
 H        -8.8410699061       -8.6418102834        1.2077541676
 H        -9.6806083499       -8.7401769211       -0.3545392219
 H        -9.8626758549       -9.9413506583        0.7808750063
 H        -9.8841073942       -8.0984759702        3.2690954546
 H       -11.1109483374       -9.2116175789        3.3692566904
 H       -11.6022862059       -7.5448144889        3.3825326980
 H       -12.1369834318       -1.0264201288        0.6605368726
 H       -10.7307527473       -2.0034413324        1.1371876631
 H       -12.4190394178       -2.6268475889        0.6499293982
 H       -12.9328816822       -3.2274124738       -1.9215632988
 H       -12.7532465408       -1.7188810643       -2.7230821232
 H       -13.4954570018       -1.8217627381       -1.1334877354
 H       -10.0130746165        4.5183653841       -4.3110158474
 H       -10.7333547861        4.3110430038       -2.7549423059
 H       -11.0911708888        3.0541619885       -4.0229085685
 H        -9.2459637475        1.1289184784       -4.5950138209
 H        -7.6660903585        1.8481375377       -4.4354534571
 H        -8.7431408909        2.6234413436       -5.4149128954
 H        -6.6634819352        9.3762491526       -0.0438963018
 H        -5.7998350076        8.8171304036       -1.4335258066
 H        -5.1647734298        9.3469353661        0.1978618585
 H        -4.7959015458        5.5376933440       -0.3220014473
 H        -3.7595477484        7.0955418824       -0.2883274972
 H        -4.7369238841        6.6756948734       -1.6346956574
 H        -8.4943788238       11.6230706443        3.4403384236
 H        -7.0709117895       10.8215550814        3.8545918340
 H        -8.2844891960       11.4321690589        5.0100081646
 H        -9.9134547202       10.0492078518        5.9105192392
 H        -8.5496932938        8.8256381849        6.0328532170
 H       -10.2670310508        8.4803555938        5.4205505166
 H       -14.7971754492       11.6453576894        0.7647325048
 H       -14.9330171237       11.7590631056       -0.9986644249
 H       -13.5623192388       12.5206425697       -0.1279076286
 H       -15.0054988974        8.6743177686       -0.2822080760
 H       -13.8544223645        8.4957280862       -1.6083464419
 H       -15.1181943384        9.6642125651       -1.6879517054
 Na       -9.9458393483        8.3333301717        0.2720203158
