117

 C       -12.9137643020        5.6727672864       -5.4798277785
 C       -12.1537471274        5.7896769726       -6.8026713690
 O       -12.1879215613        6.7851555418       -7.4628910273
 C       -11.5800647293        4.3407979794       -7.5284897052
 C       -10.3815940351        4.0301561884       -6.5388878479
 O       -10.5966592874        3.3301105992       -5.5647660587
 C        -9.0233342955        4.7545441144       -6.7244718860
 C        -7.9004130003        4.3296412823       -5.7731963250
 C        -7.9919245030        4.8543190582       -4.3426905261
 O        -8.3813338761        5.9595072860       -4.0633431356
 C        -7.6480393286        3.9058568121       -3.1476690805
 C        -6.7622954149        4.6872054316       -2.1160878025
 O        -5.5695719023        4.4236029730       -1.9125963930
 C        -7.5190815023        5.8567053823       -1.2886711900
 C        -6.6324377165        6.5079539201       -0.1922818101
 C        -6.5334325764        5.5681873673        1.0387971053
 O        -7.0586757070        4.4291539092        0.9872759043
 C        -5.7086682947        6.0875007770        2.1655573366
 C        -6.7569356869        6.9838655655        3.0484394643
 O        -7.4291042468        7.7675665196        2.4178192833
 C        -7.0521827881        6.6462099292        4.5854528760
 C        -8.5662054521        6.7590510954        4.8112116015
 C        -9.2470061120        5.5578484744        4.2812101616
 O        -8.5909426527        4.5880027100        3.9347852875
 C       -10.9057688866        5.5173476108        4.0822194328
 C       -11.3917327372        4.1359296693        3.7569625634
 O       -10.7947799764        3.3853672493        3.0185701600
 C       -12.6926909576        3.6965391616        4.4437292591
 C       -13.5677573658        2.7434597862        3.5948355293
 C       -13.6816394189        2.8461678277        2.1588480652
 O       -13.4992722814        3.8533009856        1.5737550074
 C       -14.3079328929        1.5747857839        1.3669438609
 C       -13.1953269576        0.5331067870        1.3795868143
 O       -12.9687482795       -0.1041194849        2.4634328761
 C       -12.3298220741        0.2930615486        0.1744623473
 C       -11.1177216944       -0.6527393437        0.2902785517
 C        -9.8589532142        0.0163887707        0.7887501430
 O        -9.5951039663        1.1823213117        0.6337649094
 C        -8.9032196127       -0.7436398170        1.8126793263
 C        -8.7330865143       -0.0560776589        3.1737477234
 O        -8.8162398595        1.1593755216        3.2407982694
 C        -8.3416961623       -1.0267122082        4.3661763561
 C        -9.2427574299       -2.2906900415        1.7399273710
 C        -7.4522772767       -0.5856143797        1.2442491277
 C       -15.4798197356        1.0974335881        2.1925799049
 C       -14.7500890092        2.0129310489        0.0075954351
 C       -11.4888525108        6.1728441800        5.3675556811
 C       -11.3566648101        6.4691947714        2.8578380901
 C        -5.1951521838        4.8189812906        2.9176790204
 C        -4.5844503854        6.9894661446        1.6935588404
 C        -9.0813323586        3.4429662204       -2.7227037972
 C        -6.8845575628        2.6240322115       -3.4770836842
 C       -12.8450214185        3.2926500853       -7.5517617066
 C       -11.1912778990        4.5747127541       -9.0291124898
 H       -13.3184507189        6.6262505870       -5.2705979061
 H       -12.0035090727        5.4453941552       -4.8447646235
 H       -13.4909417547        4.7383555452       -5.3808754689
 H        -9.1912891398        5.7472406319       -6.4834287092
 H        -8.8092561398        4.6280572612       -7.7677220588
 H        -6.9682762251        4.8276775092       -6.1142208902
 H        -7.7468955895        3.2620914445       -5.7073899804
 H        -8.4452287526        5.5390796802       -0.8264508524
 H        -7.6937985526        6.6833692751       -2.0432949769
 H        -6.9672590069        7.5052187911       -0.0385349423
 H        -5.6371904191        6.6494077020       -0.6355045206
 H        -6.4466617627        7.3332817761        5.1611824509
 H        -6.7784793210        5.6103186790        4.8524636739
 H        -8.9448743919        7.6450394364        4.1886625460
 H        -8.7244164385        6.9635849689        5.8540830942
 H       -13.2763860276        4.5163583684        4.6895487729
 H       -12.4382086807        3.2348322315        5.3779057645
 H       -14.5719027201        2.9042265864        4.0125734179
 H       -13.1718113348        1.7198027733        3.8236678836
 H       -12.0344551728        1.2804172612       -0.1345220021
 H       -12.9802573427       -0.1354857082       -0.5862066922
 H       -10.7788424558       -1.1808825050       -0.6591128945
 H       -11.3773650832       -1.4002368063        1.0317317611
 H        -7.9872056410       -0.5258341757        5.2587138532
 H        -7.5367275648       -1.6703666612        3.9838448528
 H        -9.1561946201       -1.7450510036        4.7270661689
 H        -9.4636664342       -2.6593762849        0.6902092224
 H       -10.1776519749       -2.4691221212        2.3423410076
 H        -8.4652974740       -2.8950015652        2.1298139390
 H        -7.2173731710        0.4515623485        1.1251290006
 H        -7.3559783005       -0.9861350518        0.2396769911
 H        -6.6601665383       -1.0786870982        1.9661158249
 H       -15.1975176247        0.5670752892        3.0636225759
 H       -16.1826690995        0.5121211567        1.5961248446
 H       -15.9248022578        1.9423480854        2.6932064048
 H       -15.3511992626        2.9550483225        0.0104494394
 H       -15.3964079047        1.2233646414       -0.3514819479
 H       -14.0191298104        2.3867337481       -0.7655399963
 H       -10.9716923209        7.0202201074        5.7933139018
 H       -11.5775204794        5.4249533384        6.1920727440
 H       -12.4889992691        6.4025413386        5.1560316461
 H       -10.6835577294        7.2700660796        2.6051603867
 H       -12.2349205967        6.9657883613        3.0700610600
 H       -11.4449466428        5.8242298553        2.0094384592
 H        -4.5279406672        5.0398759936        3.7305384741
 H        -4.7630718844        4.2719174301        2.0735820680
 H        -6.0761744649        4.3400856011        3.3397981044
 H        -4.1251611129        6.4856525678        0.7973746197
 H        -3.7784611543        7.1132213507        2.3778921863
 H        -4.9640013110        7.9361424625        1.5833019652
 H        -9.5338985231        2.8457277778       -3.5114243905
 H        -9.8034359330        4.2583205763       -2.5948677083
 H        -9.1019477043        2.8876686284       -1.8585000917
 H        -7.4692734926        1.9893049114       -4.1536071504
 H        -6.7446087384        2.0966372099       -2.5014773345
 H        -5.9971585909        2.9368273815       -4.0716760350
 H       -12.8535168545        2.6171226349       -6.6828013242
 H       -12.7893960604        2.6499292820       -8.4513809000
 H       -13.7568132045        3.8543365370       -7.5363334267
 H       -10.4218180959        5.3541859012       -9.1103212663
 H       -12.0651978518        4.8355256220       -9.5143830688
 H       -10.9466447445        3.6036399219       -9.2995502474
 Na       -8.8624664485        3.2028997779        1.8797751436
