117

 C       -11.1865072756       11.7918425066       -2.1365684985
 C       -11.5226871525       10.4540161905       -1.5008679103
 O       -11.0176476168        9.4434801693       -1.8249920869
 C       -12.8076334694       10.2890309101       -0.4659480222
 C       -12.5098935200        9.6456282409        0.9549610735
 O       -12.1611185582        8.5159030702        0.9505534628
 C       -12.8449565685       10.3507455587        2.3244871468
 C       -11.8462340941        9.8074288598        3.3799132949
 C       -10.4203748684       10.0859011467        2.8089012595
 O       -10.3238485260       10.4709734556        1.6729490331
 C        -9.1401247658        9.7847063167        3.7374928412
 C        -8.1471710153        8.7293654104        3.0569172804
 O        -8.6410628665        7.9829638339        2.2067030669
 C        -6.6817378234        8.5009242539        3.5882265367
 C        -5.5197071113        8.1487029225        2.5028028931
 C        -5.6925367528        7.0817041247        1.4641548783
 O        -5.6594988183        5.8940224832        1.7993158791
 C        -5.8464581878        7.3024909889       -0.0397611473
 C        -7.2212882525        6.5644636080       -0.3793766595
 O        -8.2508925746        7.2741741112       -0.4477121640
 C        -7.3792222275        5.0966422166       -0.3710205012
 C        -8.5940686933        4.2928859222       -1.1935168267
 C        -8.0203702223        3.4569888025       -2.4431812845
 O        -6.8352838188        3.4815248241       -2.6852849859
 C        -9.0653942845        2.5771496152       -3.2127883374
 C        -9.9102283122        1.5613054246       -2.1788362695
 O       -11.0652954888        1.7992072232       -2.0123934801
 C        -8.8863246984        0.5425407450       -1.5946303718
 C        -9.3627986910       -0.6818159856       -0.8686041444
 C       -10.4582780356       -1.4591462604       -1.6811883385
 O       -10.3942509624       -1.5777067861       -2.8865885967
 C       -11.5911505996       -2.3243199135       -0.8944591207
 C       -10.7632305293       -3.7340125159       -0.8279582503
 O        -9.5829064923       -3.7869612604       -1.1336394704
 C       -11.5191563612       -4.9233330338       -0.4850234558
 C       -10.6284954439       -6.1983414665       -0.4773767435
 C       -10.4353522957       -6.5916890304        1.0553747279
 O       -10.0621501492       -5.8235922785        1.9132604507
 C       -10.7682473645       -8.2033648680        1.5433964636
 C       -12.1650939587       -8.5933911630        0.9777798610
 O       -12.9568791666       -7.6355902321        0.9551630430
 C       -12.4869413864      -10.0379105612        0.7535847754
 C        -9.3580751841       -8.9335081730        1.3010455506
 C       -11.0664246628       -8.1537584731        3.0682443276
 C       -11.8470037141       -1.6730452856        0.4958280082
 C       -12.8563508376       -2.4386891471       -1.7596511920
 C       -10.3265558609        3.4475098758       -3.7758742287
 C        -8.3752672917        1.9413704419       -4.3685170431
 C        -6.0101457154        8.8024550948       -0.2778197107
 C        -4.6168795092        6.6853324537       -0.7139709514
 C        -8.3945678101       11.1402802729        4.0079343675
 C        -9.6270527839        9.0304961277        5.0050441283
 C       -13.5216299706       11.6112787775       -0.1177315698
 C       -13.7394150590        9.2306820922       -1.1108528831
 H       -10.1352204268       11.8213050416       -2.1270658029
 H       -11.5417519936       12.7533809235       -1.8312834831
 H       -11.4632302051       11.8823339916       -3.2366016396
 H       -13.9073350555       10.0823775325        2.4996956026
 H       -12.9434319576       11.3987061415        2.4419908285
 H       -11.8064827914        8.7966506474        3.8082172728
 H       -11.9807561652       10.4010763150        4.2828107013
 H        -6.8830032475        7.6421548709        4.3034377347
 H        -6.3009131171        9.4842932367        4.0652449649
 H        -4.5040926794        7.9552364162        3.0531246355
 H        -5.3782077706        9.1452037823        1.9562794326
 H        -7.6122474991        4.7273997778        0.6216918501
 H        -6.4398125403        4.5894938864       -0.6384810332
 H        -9.2834403329        5.0564774258       -1.7978488444
 H        -9.2587366092        3.7130050198       -0.6039248918
 H        -8.1595120220        1.1298672023       -1.0274892410
 H        -8.4041579220        0.3066946482       -2.6201415580
 H        -9.5674282127       -0.6608806840        0.1849704358
 H        -8.6056293114       -1.4745944425       -1.0187694087
 H       -12.2361180149       -4.9579211964       -1.1887818784
 H       -12.2362593938       -4.8392773579        0.4001388946
 H        -9.5922653282       -5.9760598645       -0.8277269000
 H       -11.0874499862       -7.0413653616       -1.0001383807
 H       -11.8017337182      -10.4389506213        0.0955738229
 H       -13.5421896227      -10.1262120332        0.3634470100
 H       -12.2361660260      -10.5854773836        1.6877282241
 H        -8.5213598685       -8.2003659764        1.4278581294
 H        -9.2972497852       -9.3680455795        0.2660463481
 H        -9.2161133201       -9.8006401408        2.0032798326
 H       -10.6255139323       -7.2289517466        3.4541678766
 H       -10.5818930739       -8.9723096213        3.6946996081
 H       -12.1986755951       -7.9068155892        3.2779443472
 H       -12.3616453249       -0.7112914584        0.1770281781
 H       -10.9701924563       -1.5111331199        1.2375138340
 H       -12.6471956649       -2.1278000036        1.0218843766
 H       -12.5524232720       -2.5565975006       -2.7941518073
 H       -13.4306865597       -1.4505051246       -1.7605805233
 H       -13.6253034243       -3.1830276352       -1.4994607618
 H       -10.0331293934        4.2947707836       -4.3243640050
 H       -10.9814161474        3.8828665130       -3.0047392540
 H       -10.8007803009        2.7007999046       -4.3552919992
 H        -9.0560264717        1.1982406003       -4.9933672466
 H        -7.6098328364        1.2067347650       -3.9736535142
 H        -7.8282921045        2.7299065868       -4.8675088878
 H        -6.9087761561        9.2338456774        0.2103175693
 H        -6.1817257514        9.1094822458       -1.3703143248
 H        -5.1363547836        9.4605241277        0.1270769406
 H        -4.0534291944        6.2665597361        0.0797625889
 H        -4.1345110811        7.4597759587       -1.3212827457
 H        -4.8845244285        5.7652041584       -1.2662225457
 H        -7.3149209159       11.2370645778        3.7336146217
 H        -8.2010286285       11.4410060123        5.0981746068
 H        -8.9401236278       11.8843704137        3.4571276738
 H       -10.3519787203        9.3683432964        5.7489134926
 H        -8.7265152643        9.0078179993        5.5481512093
 H        -9.9799580361        8.0713807700        4.6524868776
 H       -14.5366328866       11.3882310203        0.1727496212
 H       -13.4404953658       12.3035353379       -0.9296290021
 H       -12.9794842748       12.1918597807        0.6660809620
 H       -14.8062762517        9.5324494200       -1.3513651901
 H       -13.8291645644        8.5150767492       -0.3151651554
 H       -13.3922269668        8.7412686201       -2.0040821967
 Na       -9.9157111680        8.6035205459        0.0211240379
