117

 C       -10.9351340709       11.7733006866       -1.9485379355
 C       -11.2998984986       10.4727250237       -1.3458794354
 O       -10.5044066254        9.5465153894       -1.6447960603
 C       -12.5874632537       10.3749871953       -0.4856305938
 C       -12.3259520206        9.4801757324        0.8560517339
 O       -11.7590595093        8.3662459195        0.8443143806
 C       -12.9286841475        9.9608123701        2.1586325706
 C       -11.8508149404        9.9278015829        3.2751651754
 C       -10.4538398764       10.0708098278        2.7457764922
 O       -10.2585758790       10.5656280738        1.6230017408
 C        -9.2424025051        9.7738811663        3.5652133608
 C        -8.1329738448        8.8369910890        2.6973971452
 O        -8.5222107108        8.1052005741        1.8635703744
 C        -6.8071225874        8.5067701001        3.4114657626
 C        -5.6276373465        8.2247723234        2.4749378955
 C        -5.8118068884        7.0101892865        1.5358014114
 O        -5.7347425470        5.8859539100        2.0085410987
 C        -6.1017217928        7.2043368694        0.0004087051
 C        -7.3298063876        6.3626790759       -0.3787802415
 O        -8.3646149197        6.8724138449       -0.5311706433
 C        -7.2952724790        4.8654071778       -0.3253102931
 C        -8.6187516504        4.2856789668       -0.9269769107
 C        -8.2083202655        3.3946039131       -2.1596085843
 O        -7.0201932212        3.2549360142       -2.3016794730
 C        -9.2064084166        2.7141071486       -3.1900950845
 C        -9.7129134383        1.5563152256       -2.2590274113
 O       -10.8229924758        1.6790918385       -1.7496687814
 C        -8.7352400443        0.4467472994       -1.6286175366
 C        -9.5750664035       -0.5606669589       -0.9270744554
 C       -10.8117210810       -1.2699252126       -1.8233428537
 O       -10.8499032692       -1.0537367555       -3.0411620418
 C       -11.6276756535       -2.4616908025       -1.0932112037
 C       -10.8766072502       -3.8452053006       -0.7610813614
 O        -9.8586470413       -4.1439411718       -1.3215539475
 C       -11.6760662321       -5.0713885119       -0.2606864404
 C       -10.8194802285       -6.3319721539       -0.2109050695
 C       -10.3383268828       -6.5327010344        1.2760826728
 O        -9.7263131235       -5.6542464276        1.8439476723
 C       -10.7936378586       -8.0067170922        1.9011812243
 C       -12.1789427038       -8.3838541733        1.2419978213
 O       -13.0200958541       -7.5394741629        1.0640962323
 C       -12.4129876440       -9.8808857537        0.7904563721
 C        -9.5979760949       -8.9704992841        1.3848111574
 C       -10.7279967313       -7.7963662387        3.4920173107
 C       -11.8726282822       -1.8840877925        0.3976603597
 C       -12.9549772423       -2.6887032600       -1.9643974445
 C       -10.1749446619        3.6174475270       -4.0334591542
 C        -8.2701102650        2.0162403489       -4.2322221383
 C        -6.2815143946        8.6247284593       -0.5048070911
 C        -4.8513539458        6.7624692952       -0.8469725585
 C        -8.8017176108       11.2241829059        3.8922182013
 C        -9.4053175498        9.0286546225        4.9304175046
 C       -13.2070087456       11.7916907409       -0.4387534094
 C       -13.5654288286        9.5391751021       -1.2790489713
 H       -10.4998343967       11.7951291716       -2.9675761109
 H       -10.2060046638       12.3311382445       -1.3417009832
 H       -11.6421921334       12.5059015741       -1.9462048233
 H       -13.8557345894        9.5916661206        2.5533127746
 H       -13.2731457220       10.9976996362        1.9956623962
 H       -11.8694461742        9.0320366522        3.8992699326
 H       -12.0992137202       10.7236469071        4.0024135211
 H        -7.0547451539        7.6128121772        3.9573100651
 H        -6.4360743701        9.3323353308        3.9584891449
 H        -4.9466860892        8.0120867188        3.2318081973
 H        -5.2344499908        9.1192596631        2.0519387686
 H        -7.2900891442        4.4545077751        0.7615289552
 H        -6.4146929678        4.3295248791       -0.7386987989
 H        -9.3969110868        4.8194833868       -1.3427443913
 H        -9.0466212153        3.5475640924       -0.2096907691
 H        -8.1044133464        1.1437896685       -0.9514681681
 H        -8.0758024469        0.1114449734       -2.3657677919
 H       -10.0506703849       -0.2757876306        0.0208248589
 H        -8.9691590017       -1.4125559002       -0.6118682652
 H       -12.6302704918       -5.3081816551       -0.9453507103
 H       -12.2226845104       -4.8732256703        0.6204638885
 H        -9.9413927563       -6.2643145134       -0.8803619993
 H       -11.4711645146       -7.1766212735       -0.5066828876
 H       -11.4708862572      -10.4388551937        0.4914722308
 H       -13.0917464621       -9.8360042073        0.0095937307
 H       -12.7998353621      -10.4311142710        1.6207154249
 H        -8.6869213244       -8.7276819171        1.8941210180
 H        -9.4119822633       -8.7319768755        0.3667924932
 H        -9.7492873610      -10.0248058508        1.4743389905
 H        -9.8407332773       -7.3062768128        3.8868352731
 H       -10.8910926436       -8.7045911104        4.0273504535
 H       -11.3618718041       -7.0396204753        3.7278652332
 H       -11.9802378910       -0.7872746440        0.3634954145
 H       -11.1023686264       -2.2249630900        1.0169892596
 H       -12.7864295607       -2.3090485315        0.9093334588
 H       -13.0103328088       -1.8720924771       -2.7449039492
 H       -13.7825611662       -2.4736874703       -1.3797674070
 H       -13.1538607358       -3.6437041327       -2.3913096852
 H        -9.5281773337        4.2102942374       -4.6887431010
 H       -10.6869397611        4.3061427430       -3.4282861801
 H       -10.8325543686        2.9817700543       -4.6103157643
 H        -8.8557495151        1.3116721098       -4.7068858800
 H        -7.4361812126        1.4709258690       -3.9123547413
 H        -7.9731842941        2.7768860394       -4.9458487547
 H        -7.1574213874        9.1889186631       -0.1408124332
 H        -6.3649879417        8.7863761698       -1.5430951048
 H        -5.3281181721        9.1305532162       -0.3308035627
 H        -3.9566715675        6.6397735578       -0.1661946373
 H        -4.6515003667        7.5974203577       -1.5151740427
 H        -5.0840151746        5.8550950530       -1.3773605439
 H        -8.4411150641       11.1518479157        4.9158321153
 H        -9.4914628662       11.9766245484        3.9789982623
 H        -8.1339956225       11.6393779964        3.1566437715
 H        -9.9263139169        9.6620878037        5.6514712324
 H        -8.4659556419        8.8311340801        5.5020983931
 H       -10.0997578563        8.1789082392        4.7226515736
 H       -13.6534589027       11.8578707545        0.5377368509
 H       -13.9337843941       12.0804202773       -1.2210168032
 H       -12.4793280349       12.5077215287       -0.5207136578
 H       -13.4736387094        9.8492343345       -2.3105270677
 H       -14.6004281311        9.6627962826       -0.9589865618
 H       -13.1777160596        8.5749110660       -1.4334063229
 Na       -9.7906708403        8.5825929805        0.0635641935
