117

 C       -10.5701191313       11.8701247974       -2.0407282428
 C       -11.1360519415       10.6226711373       -1.4233268199
 O       -10.3535148962        9.6897900923       -1.5577060348
 C       -12.4833639488       10.4906689366       -0.6448922524
 C       -12.3970824760        9.5145480688        0.5971322891
 O       -11.8544203034        8.4421586732        0.4969807356
 C       -12.8927445019        9.8913646806        2.0345572279
 C       -11.8599690877        9.7513449527        3.1066275245
 C       -10.4279327221       10.1044146902        2.6473566037
 O       -10.1886204448       10.4661847383        1.5273366887
 C        -9.2124683313        9.8557694823        3.6562235560
 C        -8.0591641226        8.9363301875        2.9325386295
 O        -8.2830483208        8.4440549029        1.8384646154
 C        -6.6694365666        8.6015556278        3.5586798002
 C        -5.7370957510        8.4315000519        2.3121601672
 C        -6.0380222330        7.1147523797        1.5163132480
 O        -5.8921780234        6.0775835725        2.0815972381
 C        -6.3196741148        7.1636354465        0.0167531079
 C        -7.5192489102        6.2040930035       -0.3742851311
 O        -8.4927432033        6.7657465391       -0.9742307351
 C        -7.5361501606        4.7378057619       -0.1391663103
 C        -8.4687200794        3.9510696767       -0.9473019916
 C        -7.8970351559        3.1496833792       -2.1145011603
 O        -6.6848713441        3.0824418189       -2.2210811089
 C        -9.0515423918        2.5736012458       -3.0576825947
 C        -9.8370419567        1.5463663516       -2.2419005078
 O       -10.7911514029        1.9284837240       -1.6394315972
 C        -9.0429689319        0.1095243590       -1.9797734174
 C        -9.7196802034       -0.7597864809       -0.9750842679
 C       -10.8891975778       -1.3215916476       -1.8177723676
 O       -11.2622474405       -0.7804359249       -2.7963186799
 C       -11.7297371357       -2.5663175873       -1.2162130974
 C       -10.9189587873       -3.8863261931       -1.0967109239
 O        -9.8704471257       -3.9380087012       -1.6687181920
 C       -11.5940027680       -4.9381949659       -0.3007620567
 C       -10.8055032850       -6.2416132352       -0.1680792060
 C       -10.3358714613       -6.4552318079        1.3480674967
 O        -9.5604176092       -5.7469545000        1.9087489373
 C       -10.7240898869       -7.9146041134        2.0446296417
 C       -12.1533522105       -8.2654712449        1.4758037374
 O       -13.0307482590       -7.4114730338        1.6369823164
 C       -12.5005385597       -9.6792810869        0.9637865090
 C        -9.6032698453       -8.8815885958        1.7157761380
 C       -10.7416685180       -7.7691530538        3.6322918758
 C       -12.2112420960       -2.1608917970        0.1091683687
 C       -13.0325509584       -2.6163482477       -2.0254973713
 C       -10.0851303617        3.6154021923       -3.4264728023
 C        -8.2612654903        1.9148938513       -4.3073611652
 C        -6.5287227310        8.5409886080       -0.5454737564
 C        -5.0863425757        6.5117676672       -0.6599104951
 C        -8.3239119562       11.1149022567        3.8807363461
 C        -9.6474721369        9.0620733493        4.8857175867
 C       -13.2568114019       11.8091019923       -0.1003516853
 C       -13.3138705961        9.6529330169       -1.7407820718
 H       -10.3000961578       11.7241135793       -3.0821666259
 H        -9.6142261648       12.1564187288       -1.5931876416
 H       -11.0530985818       12.8871503068       -1.9564976350
 H       -13.6818525549        9.1917942120        2.3954218539
 H       -13.5505748477       10.7554556744        2.0209034727
 H       -11.9294236640        8.6682861609        3.3896365328
 H       -12.0839897698       10.2609427948        4.0536382996
 H        -6.8198287972        7.5613322221        3.8765849965
 H        -6.2489242711        9.3534618179        4.2398076069
 H        -4.6815189869        8.6321077112        2.6998561422
 H        -5.8236546179        9.3025119198        1.6401658634
 H        -7.9497267149        4.8608861511        0.8431734259
 H        -6.5232053214        4.3388918113        0.0586209200
 H        -9.4287861832        4.5396466563       -1.1834626806
 H        -8.8874837135        3.1039079674       -0.4008633628
 H        -8.0568909954        0.4221038525       -1.7762807699
 H        -8.8878095899       -0.3236052908       -3.0040978460
 H       -10.0931797408       -0.4062369610       -0.0315107710
 H        -9.0347033452       -1.5968213337       -0.6708328004
 H       -12.4502319247       -5.0981451664       -0.8506311219
 H       -11.9813602189       -4.4911685334        0.6581187874
 H        -9.9527613130       -6.1289868257       -0.8076762540
 H       -11.3486010862       -7.1141517491       -0.4813448208
 H       -11.6440511496      -10.1179421042        0.4602787959
 H       -13.4333542307       -9.7661471154        0.3317971217
 H       -12.5732789310      -10.2320470485        1.9154148951
 H        -8.6218388101       -8.4235613869        1.6152657316
 H        -9.7286392350       -9.3718504829        0.7215777846
 H        -9.4553837332       -9.5927861733        2.5130044131
 H        -9.7675430908       -7.6661276006        4.1447853163
 H       -11.3019185140       -8.6099993403        4.1153647887
 H       -10.9905748483       -6.6899881862        4.0062721552
 H       -12.7474388901       -1.2805030735        0.0708691512
 H       -11.3120269440       -2.0830974532        0.7393721553
 H       -12.6847582401       -2.9323054534        0.7065588078
 H       -13.5364741420       -1.7127100105       -2.0803386273
 H       -13.7406108508       -3.4576320873       -1.7729225775
 H       -12.7094376515       -2.9695758753       -3.0360183440
 H        -9.6702904010        4.4757454158       -4.0032486734
 H       -10.6019773474        3.9437332535       -2.4685030215
 H       -10.7950207936        3.0365242009       -4.0671945988
 H        -8.9173281453        1.3046040321       -4.9651322204
 H        -7.4294031165        1.2112344831       -3.9675223423
 H        -7.8067454266        2.6684804420       -4.9852265445
 H        -7.2303979581        9.1366470205        0.0300038089
 H        -7.1341114918        8.5543913483       -1.4738460201
 H        -5.6919980430        8.9638106559       -1.0279664619
 H        -4.2260733263        6.8875528294       -0.1494932696
 H        -4.9987971691        6.9460474112       -1.6531428823
 H        -5.2311582996        5.4203320993       -0.7076517593
 H        -8.3757744306       11.5950663970        4.8307093381
 H        -8.6931723491       11.8802887036        3.0753173449
 H        -7.2759573486       11.1605340869        3.4908975389
 H       -10.5335888898        9.6006723436        5.2712633375
 H        -8.9519395075        9.2159438117        5.6851029265
 H        -9.8861867702        8.0398401697        4.7516634886
 H       -14.3390487058       11.8295298537       -0.2642300255
 H       -12.7831880689       12.5803797123       -0.6494108246
 H       -12.9348498876       12.1017299498        0.9609417093
 H       -12.7520177812        9.1176579721       -2.4979255476
 H       -14.0214410615       10.3680696789       -2.1777324978
 H       -13.7594677207        8.6975482544       -1.2622841349
 Na       -9.5607939449        8.3467780024        0.0313814095
