117

 C       -10.5692448116       12.0733708733       -1.9888635110
 C       -10.9631614106       10.8002070126       -1.3532454050
 O       -10.3475131666        9.7075717317       -1.5335962669
 C       -12.4543835960       10.5445749017       -0.6811003450
 C       -12.2978262564        9.4473919959        0.5547664590
 O       -11.9581022444        8.3086032427        0.2268620443
 C       -12.7779588106        9.7821435575        1.9446662554
 C       -11.7762606766        9.5795686035        3.0594144984
 C       -10.3345821541       10.0556062170        2.6677809216
 O       -10.1370534710       10.5071847761        1.5696741883
 C        -9.0744661684        9.8921188533        3.6851914848
 C        -8.0021661534        8.8596772793        2.9705491121
 O        -8.2464499050        8.4180063087        1.8869695581
 C        -6.6156581379        8.5570092617        3.5520488550
 C        -5.6965056281        8.5090266027        2.3389593110
 C        -6.0817132624        7.1887002607        1.5561539237
 O        -6.0881709561        6.1629537323        2.1810497563
 C        -6.4270312790        7.2302825598       -0.0799309879
 C        -7.6179266976        6.2456852545       -0.4006267630
 O        -8.5200638320        6.6124016338       -1.1532781664
 C        -7.7055485308        4.6660950091        0.1874327710
 C        -8.4670785475        3.7541101679       -0.6944713283
 C        -7.8213573555        3.0475772121       -2.0040662313
 O        -6.6242625024        3.0082505724       -2.3067376160
 C        -8.9302877484        2.5288127174       -3.0274424775
 C        -9.6698508686        1.4872101651       -2.1880923042
 O       -10.6496321247        1.8658297021       -1.5624271191
 C        -9.0885159891        0.0441086313       -2.0509444149
 C        -9.7723496758       -0.9466200791       -1.1545720322
 C       -11.1202245003       -1.3195980981       -1.7642218472
 O       -11.4597254340       -0.7281768299       -2.7898599739
 C       -11.9287392209       -2.4808070833       -1.2240801312
 C       -10.8886190141       -3.8424473758       -1.1911306341
 O        -9.8829644352       -3.9302353420       -1.8293238076
 C       -11.4485807566       -5.0164938067       -0.3222879035
 C       -10.5486141580       -6.3579176695       -0.0858801417
 C       -10.1967287572       -6.5536203884        1.3608595808
 O        -9.5742470613       -5.6991761859        1.9399948716
 C       -10.6431914076       -7.8955627350        2.0676096222
 C       -12.1787201907       -8.2486093684        1.7691112692
 O       -13.0030926456       -7.3915994118        1.9486780540
 C       -12.6376314947       -9.6042682779        1.1193781271
 C        -9.5129674715       -8.8699516879        1.7016020135
 C       -10.9201081819       -7.5662603614        3.5439221398
 C       -12.4942850745       -1.9413924029        0.2731188787
 C       -13.2089201954       -2.7951073697       -2.1806996541
 C        -9.9215366785        3.6813085044       -3.3700382485
 C        -8.4220233005        1.8478091637       -4.4188115242
 C        -6.4718621585        8.5844566558       -0.8061058870
 C        -5.0713350635        6.5117751849       -0.6130436851
 C        -8.3757178249       11.2258998456        3.9446923453
 C        -9.7093328823        9.2336308352        4.9862989321
 C       -13.1631126136       11.8747138330       -0.3850291586
 C       -13.2670162251        9.8728154976       -1.7703112655
 H       -10.4934625453       11.8294575778       -3.0674876697
 H        -9.6295251390       12.5917837888       -1.8066278031
 H       -11.2322769424       12.8700807509       -1.9041093592
 H       -13.7631141867        9.3983990515        2.0960453495
 H       -13.0531756811       10.8425211118        1.8288691088
 H       -11.7673836837        8.5477486584        3.3645289905
 H       -12.0318342682       10.1537166027        3.9688233304
 H        -6.5092398789        7.4890745681        3.9638908953
 H        -6.2838709378        9.4711239278        4.0862992888
 H        -4.6648327076        8.2969058567        2.8195714211
 H        -5.4412870022        9.5029290770        1.8438228918
 H        -8.0606106893        4.8117830331        1.1389112229
 H        -6.6102754203        4.4426304688        0.3408438260
 H        -9.2721385478        4.3197697638       -1.0122704136
 H        -9.0072395559        2.8355734887       -0.2867188161
 H        -8.0283708977        0.2514598506       -1.6785491303
 H        -8.8647946076       -0.1464034737       -3.0497108570
 H        -9.8876496211       -0.6513556094       -0.1221007589
 H        -9.0970560202       -1.8119048166       -1.0647843926
 H       -12.4085720866       -5.3113398530       -0.8726938424
 H       -11.7109298113       -4.5335637254        0.5849500146
 H        -9.6328761085       -6.2200470256       -0.6981292544
 H       -10.9985615141       -7.3068623184       -0.4059604268
 H       -12.0549153553       -9.7897802205        0.1214640458
 H       -13.6865524158       -9.4701997903        0.9074212044
 H       -12.4849792785      -10.4578174865        1.7562919493
 H        -8.5858437035       -8.3937035186        1.3254482322
 H        -9.7429481078       -9.5929968917        0.8498353216
 H        -9.1564025370       -9.3685951966        2.6037348459
 H       -10.0600535368       -7.1780316137        4.1611631909
 H       -11.4197646137       -8.4147019581        4.0933752531
 H       -11.4111350068       -6.6028110747        3.6394519897
 H       -12.7458020488       -0.8940791828        0.2672813403
 H       -11.7786528149       -2.1501508326        1.0640633302
 H       -13.3143385361       -2.6267956461        0.7027458883
 H       -14.1323177346       -2.3521687883       -1.7751164452
 H       -13.4112910406       -3.8671602600       -2.3427001905
 H       -13.0975652451       -2.4447653786       -3.2513691801
 H        -9.4249411984        4.6395674034       -3.6637710282
 H       -10.5598753393        3.7738939654       -2.5197041211
 H       -10.5111934855        3.3048248429       -4.2287277471
 H        -9.2001838416        1.4369767476       -5.0443086322
 H        -7.6615928630        1.0284709153       -4.1609783806
 H        -7.8147515915        2.5943258655       -5.1226003646
 H        -7.2824041860        9.3137858573       -0.5347070676
 H        -6.6541074436        8.5488816860       -1.8666402133
 H        -5.4884357194        8.9015933577       -0.9569629111
 H        -4.2957855776        7.2763298079       -0.5124574172
 H        -5.0945531570        6.2706441312       -1.6510416722
 H        -5.0246662263        5.6169978025       -0.0258400415
 H        -8.7930069695       11.7382427017        4.8237608397
 H        -8.3825128534       11.9035524916        3.0820143503
 H        -7.2106453258       11.2657506893        4.1141892633
 H       -10.5335138797        9.8793925962        5.3427315251
 H        -8.9914949578        9.1660648159        5.8156327338
 H       -10.0285784924        8.2373949194        4.8333837664
 H       -14.2323944226       11.8212396045       -0.7077886066
 H       -12.6849607227       12.6064561744       -1.0476920330
 H       -13.1127005514       12.2059300571        0.6553085335
 H       -12.7786537631        9.0166623296       -2.1262479659
 H       -13.3865390882       10.6412894895       -2.5409114231
 H       -14.2207730895        9.3472168291       -1.4364416177
 Na       -9.5733779723        8.2183292880       -0.0914291643
