117

 C       -11.4238416348       -5.9739434627        2.7798843820
 C       -10.3848203255       -5.5066225061        1.7898913883
 O        -9.7348049358       -6.3019849813        1.1116585630
 C       -10.0939286002       -3.9622229788        1.8064172575
 C       -10.9545204409       -3.1482081712        0.8863638801
 O       -10.4711145260       -2.3070579647        0.1705160263
 C       -12.6044084092       -3.1576957263        0.9676607017
 C       -13.2730330536       -2.9943233621       -0.4476918308
 C       -12.7648316523       -1.7972140753       -1.3934183752
 O       -11.8981775192       -2.1233423293       -2.2224275090
 C       -13.2000938972       -0.3086059032       -1.1628632142
 C       -11.8895996561        0.5878692313       -0.8811878629
 O       -11.9128332589        1.4273586617       -0.0040722209
 C       -10.6457271992        0.3748721044       -1.7052337448
 C        -9.3742484186        0.8881467408       -0.8133753500
 C        -8.9058426335        2.2654415305       -1.2661670582
 O        -9.0360479717        3.2700515995       -0.5599928433
 C        -8.3149876100        2.7082856960       -2.6591808997
 C        -9.4180186995        3.6545762876       -3.2386362782
 O       -10.5507385406        3.6364298189       -2.8512355280
 C        -9.0276328205        4.4958809972       -4.4984403842
 C        -9.9203534551        5.7418606981       -4.5002219091
 C        -9.6538200547        6.6228316125       -3.2244139835
 O        -8.5468688427        6.5083639586       -2.7290673310
 C       -10.5977901773        7.8577891491       -2.9028406096
 C       -10.0496756690        8.4752926050       -1.5518769872
 O        -9.6867855548        7.7021657756       -0.6553790344
 C       -10.1300219425        9.9925091685       -1.2789658800
 C        -9.5432963748       10.4792496206        0.0442848268
 C       -10.4708144582        9.9684420197        1.1881043799
 O       -11.5097386291        9.3800182453        1.0440680878
 C       -10.0379449948       10.3029840859        2.6875172334
 C        -8.7531375162        9.4353304830        3.0005876077
 O        -7.7043393777        9.5335804541        2.3186803274
 C        -9.0080386027        8.1995230703        3.9027129204
 C        -7.8715021731        7.2466397958        3.8929885093
 C        -7.8421449397        6.2172606070        2.7840810250
 O        -8.7369920701        6.2207112830        2.0087407323
 C        -6.7107062316        5.1449854137        2.6336878860
 C        -6.0171710525        5.6815954277        1.2883880763
 O        -6.5375531827        5.6021493467        0.1917929077
 C        -4.6072062102        6.2206923207        1.3307291575
 C        -5.7306915359        5.0975655608        3.7977881289
 C        -7.3512431508        3.7642104374        2.3844098275
 C        -9.5275148469       11.7464993689        2.9450041390
 C       -11.2730317441       10.1108090311        3.6971926424
 C       -10.7234637203        8.8217847196       -4.1202354074
 C       -12.0190499407        7.3352864566       -2.7353913086
 C        -6.9082972328        3.2954328292       -2.4976925286
 C        -8.2559076507        1.4871218514       -3.7083887641
 C       -13.8082377602        0.2033923411       -2.4937914209
 C       -14.2763028830        0.0238516466       -0.0305333624
 C       -10.3667870317       -3.2774680154        3.2263026621
 C        -8.6039317466       -3.8205156069        1.4124892876
 H       -11.0710512423       -6.1220091504        3.7990792814
 H       -11.6768245238       -7.0294714506        2.3931740761
 H       -12.2872501906       -5.2496529479        2.6404454556
 H       -13.0494790878       -2.3547168448        1.5782973164
 H       -12.9790955759       -4.1625075795        1.4164694015
 H       -14.3465807070       -2.9425723715       -0.3144877561
 H       -13.0805026119       -3.9193299690       -1.0363569196
 H       -10.7708857882        0.8530245933       -2.6396869444
 H       -10.3957273425       -0.6601685095       -1.9129269187
 H        -8.4832150813        0.1657998369       -0.8167792130
 H        -9.7250482304        1.0038461066        0.2472332012
 H        -8.8697106309        3.9325892104       -5.4399293864
 H        -8.0345977966        4.8160821154       -4.4058240499
 H       -10.9150557608        5.4420857431       -4.3823366261
 H        -9.9440104856        6.3119975833       -5.4030611019
 H       -11.1493193092       10.2655696528       -1.2280110566
 H        -9.7225492526       10.4814155880       -2.1564464505
 H        -9.5906555259       11.6401674974        0.2148095415
 H        -8.5634792333       10.1254205240        0.2944736151
 H        -9.9502258180        7.7181620504        3.5815249965
 H        -9.2604773900        8.6687998122        4.9257092329
 H        -8.0054859273        6.6001302090        4.7686521162
 H        -6.8571761025        7.7509194930        4.0901684276
 H        -4.5763288263        7.0907610249        1.9620327780
 H        -4.4893604978        6.5734158418        0.2922768445
 H        -3.7485901107        5.5946837461        1.6402509649
 H        -5.9888343263        4.4113165705        4.5595097212
 H        -5.6206737371        6.0900193318        4.2555732053
 H        -4.6776192389        4.9986227833        3.4781986693
 H        -6.4840469525        3.0209034559        2.2753913701
 H        -7.9276332607        3.8644571553        1.5315840464
 H        -7.9567730049        3.4303365304        3.2841882516
 H        -9.4470341527       11.9645433215        4.0186328947
 H       -10.1074022821       12.5245407458        2.4349983292
 H        -8.5583792217       11.8295820986        2.4497226296
 H       -11.2005857567       10.7385299144        4.5435830584
 H       -11.4116675658        9.0309155186        3.8336711840
 H       -12.0686700233       10.4087821193        3.1003231480
 H       -11.3059028925        8.3960198457       -4.9478593730
 H        -9.8418533816        9.2604408413       -4.5805933382
 H       -11.3896187912        9.6774792741       -3.7776741476
 H       -12.2271638089        6.5301630101       -3.5925056874
 H       -12.7553789251        8.1120790257       -2.9690207813
 H       -12.2068803379        6.7621922811       -1.7492642585
 H        -6.4958827908        3.7594332340       -3.4352134005
 H        -6.2247391628        2.6195638361       -1.9831065452
 H        -6.9281826312        4.0921302344       -1.7364504687
 H        -8.9949169493        0.7035271173       -3.6894208642
 H        -7.3220003365        1.0808796187       -3.5689252535
 H        -8.1923686726        1.9101273640       -4.7500114775
 H       -14.8970195324        0.1271049299       -2.4728145498
 H       -13.5671234807       -0.5165646694       -3.2661525404
 H       -13.4544510542        1.1969632670       -2.6789844207
 H       -15.1964730196       -0.5679810724       -0.2970721155
 H       -14.4377511167        1.0802727575        0.0522958963
 H       -13.8476601645       -0.1533657179        0.9485193836
 H       -11.3984174220       -3.5385375544        3.5418420271
 H       -10.2628634986       -2.2046886762        3.1201190298
 H        -9.6067774184       -3.5452910685        4.0110507017
 H        -8.1653635089       -2.9442066904        1.8718198906
 H        -8.5545478707       -3.6441479684        0.3462286264
 H        -8.1053236569       -4.8123967302        1.5096005326
 Na       -8.9802217877        5.4283962556       -0.4147197333
