117

 C        -8.1581313405       -6.9430590591        2.4580898160
 C        -7.6257638767       -5.6322049915        3.0294322242
 O        -6.5977263463       -5.6617481313        3.6394888370
 C        -8.4518352015       -4.3520340770        2.7976683780
 C        -9.6641188043       -4.3497374469        2.0174905613
 O        -9.7043107446       -5.0909544526        1.0243894160
 C       -10.8091314928       -3.3271925595        2.2487990087
 C       -11.9179455882       -3.5318679513        1.2003987295
 C       -12.3007307423       -2.1465671901        0.5975931880
 O       -11.7923218220       -1.7870788578       -0.4157605425
 C       -13.1714882859       -1.1650929726        1.4958206043
 C       -12.3015809106        0.1586836044        1.9555492422
 O       -11.9266719900        0.4406913526        3.0665676409
 C       -12.0863132115        1.1672010574        0.7432745421
 C       -10.5711282695        1.2674740795        0.5251338362
 C       -10.0128153707        2.2846803171       -0.5491634593
 O        -9.5786535729        3.3393917700       -0.1195779748
 C        -9.7793086428        1.9515157309       -2.1322328984
 C       -10.9420449791        2.7183024600       -2.7984668719
 O       -12.0667913817        2.8107036165       -2.3803180316
 C       -10.7673870940        3.2983772233       -4.3190012057
 C       -11.6664319769        4.5500969495       -4.2910915263
 C       -11.1460832722        5.5710162480       -3.2523687149
 O       -10.1252847659        5.1952785576       -2.7388716549
 C       -12.0249870791        6.7327308482       -2.6656853527
 C       -11.0890509497        7.8807174429       -2.1739550699
 O       -10.1155584124        7.5604743135       -1.4831577910
 C       -11.1536622056        9.3064552987       -2.8036917516
 C        -9.9684450529       10.1963584090       -2.3271747834
 C       -10.1730453426       10.8372873068       -1.0316343619
 O       -11.2651298036       10.7198867143       -0.4900610337
 C        -8.8505528989       11.5053458183       -0.3433569626
 C        -8.3180110501       10.3892614213        0.6233390159
 O        -7.4112893105        9.7488196956        0.1769572514
 C        -8.9071342694       10.0074480347        1.9628091363
 C        -8.0953059116        8.8561963025        2.4982948517
 C        -7.8837053453        7.7314007483        1.4809473631
 O        -8.8823485647        7.2445007766        1.0417942300
 C        -6.4581937122        7.0452238577        1.2256857830
 C        -6.2214785892        7.3091024030       -0.3253050059
 O        -6.8406349378        6.6860267767       -1.1634303229
 C        -5.2956124782        8.3442292344       -0.8938844263
 C        -5.2615939107        7.7011823399        2.0388281829
 C        -6.5406502540        5.5081593564        1.5364092484
 C        -7.8426682510       11.7856485067       -1.4604180236
 C        -9.2637874861       12.7629928350        0.4848552175
 C       -13.1651379126        7.2371885026       -3.5286008960
 C       -12.5989965634        6.1638914466       -1.2884662235
 C        -8.4058127179        2.5636090376       -2.5165421114
 C        -9.9696166211        0.3921651011       -2.4089604140
 C       -14.3892202265       -0.6733664694        0.7433088274
 C       -13.7131691240       -1.9842639415        2.7456724049
 C        -8.5737187428       -3.6537277814        4.1588498723
 C        -7.3584082540       -3.6052872393        1.9233747467
 H        -8.4514269844       -6.7555913181        1.3884191208
 H        -9.1029156676       -7.2512563863        2.8790660165
 H        -7.4335666186       -7.8275776748        2.4359245625
 H       -10.3114015355       -2.3075739983        2.1815905347
 H       -11.1521493742       -3.4291586495        3.2301122213
 H       -12.7053029192       -4.0998508097        1.7020889360
 H       -11.4936886478       -4.1395865993        0.4642874751
 H       -12.4678387536        2.2549856153        0.8098175394
 H       -12.5291199646        0.6218236585       -0.0779881576
 H       -10.3066874793        0.3050608609        0.1870836771
 H       -10.1268785094        1.5517087639        1.4507348085
 H       -11.1193567343        2.4801417979       -4.9719158560
 H        -9.7140408911        3.6556934597       -4.5411172791
 H       -12.6525495230        4.2886296599       -3.8472564236
 H       -11.7868161190        5.0576220859       -5.2043733946
 H       -12.2458758221        9.6931326259       -2.5837942279
 H       -11.1801990784        9.2436265819       -3.9138145348
 H        -9.7495159631       11.0819106005       -3.0408776935
 H        -9.0061680782        9.6298613284       -2.2952730133
 H       -10.0106591203        9.9215700065        1.8515470572
 H        -8.7844641175       10.7776728656        2.6744783818
 H        -8.6844723837        8.3827258431        3.2916060131
 H        -7.1359780779        9.2349838135        2.8793358390
 H        -5.1619066924        9.1973191867       -0.2459536697
 H        -5.5306652277        8.5694359604       -1.8703661524
 H        -4.3122376999        7.8079809638       -1.1443003979
 H        -5.1872879677        7.5388386987        3.0791652317
 H        -5.3495083320        8.7853204085        1.9040676309
 H        -4.3199049513        7.3948072171        1.5104665358
 H        -6.0594985234        5.3576227687        2.4931463697
 H        -6.1638409250        4.8306772442        0.6750050132
 H        -7.5040126854        5.1100739472        1.7942460761
 H        -7.0639584690       12.1001651460       -0.7984172579
 H        -8.3106914134       12.5342680929       -2.1124405275
 H        -7.3751528832       11.0427162506       -2.0690632848
 H        -9.2985812387       12.6284005481        1.5327178548
 H       -10.2721551328       13.1514029954        0.2314670440
 H        -8.6894996811       13.6327654126        0.2902819737
 H       -13.8080478357        6.3539738181       -3.7551725166
 H       -12.8079480961        7.6783468834       -4.4618868317
 H       -13.6657903764        8.0446118863       -3.1324821481
 H       -12.8742547861        5.0518913168       -1.2972213275
 H       -13.5194087408        6.6181507497       -1.0672589939
 H       -11.7513624017        6.2755632144       -0.5602716787
 H        -8.0673768702        2.1098965995       -3.5231278607
 H        -7.7376579128        2.0590309746       -1.8472025898
 H        -8.4638158897        3.6567191647       -2.3733105157
 H       -10.9674897563       -0.0300534390       -2.1746816112
 H        -9.2046360185       -0.2184379618       -1.9870894697
 H        -9.8776676007        0.3211953896       -3.5571128617
 H       -15.2046291839       -1.3990029197        0.4238672600
 H       -14.0653719334       -0.3073269186       -0.2308540838
 H       -14.8038411547        0.1065423530        1.3506201259
 H       -14.3554503743       -2.8459754618        2.4218598400
 H       -14.4306642025       -1.3367506185        3.2089955903
 H       -12.8663738167       -2.3731291786        3.3329053459
 H        -9.4045833225       -3.9915923476        4.7251617293
 H        -8.8683109871       -2.6590343201        4.0345191543
 H        -7.7334012662       -3.8168381589        4.8018560794
 H        -6.4853782836       -3.6011650734        2.4916157172
 H        -7.5188926833       -2.5625588418        1.7814883858
 H        -7.3238808449       -4.1070012718        0.9501905646
 Na       -8.8680378274        5.5312825722       -0.6686725422
