117

 C       -19.2323985012        1.6595890418        5.4236280765
 C       -17.8451553768        1.3986954090        5.9749059757
 O       -17.5307424228        0.2358624373        6.2814560802
 C       -16.7482441699        2.4127160588        6.5024939895
 C       -15.5162819866        1.7514633079        7.0367201827
 O       -15.2193549310        1.5963064261        8.1833663831
 C       -14.2733561882        1.6220154568        5.9709554660
 C       -13.2834667811        0.6621429838        6.5777063866
 C       -12.1002613741        0.5808418761        5.6231746037
 O       -12.2017956764        0.1883791074        4.4938062760
 C       -10.6229679411        1.2129186130        6.0461586532
 C        -9.7687194376        1.1698607992        4.7190098304
 O        -8.6123869670        0.9196869570        4.8768406352
 C       -10.2490218352        1.9500445857        3.5101541309
 C        -9.4672133527        1.4180386017        2.1527911729
 C        -9.5333423968        2.3154143112        0.9953251856
 O        -8.5955350122        3.1156958060        0.8661522929
 C       -10.8638137718        2.4880498051        0.0209643423
 C       -10.3182852285        2.6543271051       -1.4819509714
 O       -10.2147805519        3.7477019527       -1.9292067731
 C        -9.9670981416        1.3352840194       -2.3297288434
 C        -8.5104824294        1.0488224907       -2.6984437514
 C        -7.8588503106        2.2894611449       -3.2797771948
 O        -7.7179678934        3.2977500396       -2.5878284424
 C        -7.3288037988        2.3848386295       -4.7081159045
 C        -8.7531680074        2.6940388782       -5.3824593120
 O        -9.2850505505        1.7845633125       -5.9859482251
 C        -9.3970098078        4.1381058626       -5.3710009713
 C        -9.4654597870        4.7115093163       -6.7899039715
 C        -9.6704813864        6.1793623149       -6.8819501945
 O       -10.7284769607        6.7033163672       -6.7999519818
 C        -8.3712889065        7.0211195245       -7.2104551846
 C        -7.2413187962        6.9780797044       -6.0649510014
 O        -6.2165362497        6.2840136243       -6.0918244740
 C        -7.5429211712        7.5321263016       -4.6228279232
 C        -6.3756694814        7.6081447648       -3.6070664779
 C        -6.5348215300        6.7564276580       -2.3961380066
 O        -7.0758590159        5.6689425308       -2.4474106053
 C        -5.4185824147        7.2591021518       -1.2331640937
 C        -5.6470348798        6.6256602566        0.2901180730
 O        -6.7217827383        6.2056167328        0.6835415366
 C        -4.6037278101        6.8507248272        1.3904471496
 C        -4.0200719890        6.8932965113       -1.7566475205
 C        -5.5612868291        8.7379054865       -0.9666838686
 C        -7.6869511154        6.5550437577       -8.5086701769
 C        -8.8093244647        8.4932519548       -7.4424985005
 C        -6.1214990883        3.4581194577       -4.5968184247
 C        -6.7032987948        1.1420977299       -5.2049792630
 C       -11.8200326360        1.2927180631        0.1275207144
 C       -11.4798735485        3.7563060790        0.4908544859
 C       -10.7456891855        2.6474786889        6.5084138084
 C        -9.9257220126        0.3276649427        7.2384145453
 C       -16.6210465181        3.6588041920        5.5106266500
 C       -17.5059738741        2.9480946647        7.8541503017
 H       -19.6196701686        0.6960188611        4.9879243831
 H       -19.3872640659        2.1478592056        4.4722099635
 H       -19.8997306950        2.0388765468        6.2667502690
 H       -13.9547792783        2.6383060884        5.9061776470
 H       -14.6242226296        1.2808337367        4.9912858652
 H       -13.8970112446       -0.2184727844        6.8115443690
 H       -12.8936685591        1.0374654541        7.5966505356
 H        -9.8726973524        2.9613965545        3.6243976535
 H       -11.3526949412        2.0749782599        3.3801616088
 H        -9.6250042077        0.3700799357        1.9133254053
 H        -8.3773959364        1.3665819709        2.4730566125
 H       -10.3692609094        1.6930495315       -3.2466396258
 H       -10.4273669937        0.3767083888       -2.0514938038
 H        -8.4760910334        0.1035353410       -3.3624327881
 H        -7.8731251437        0.7202614050       -1.9312080488
 H        -8.5513539771        4.5740970952       -4.8097111791
 H       -10.2910545052        4.2679217798       -4.7278595817
 H       -10.2619126266        4.2466517989       -7.2973996000
 H        -8.6223720740        4.3212459905       -7.3135633349
 H        -8.1264545108        6.7866478748       -4.1385775082
 H        -8.2355028833        8.4586296526       -4.5168078609
 H        -5.8943766757        8.5198534036       -3.4822072659
 H        -5.5335457439        7.1910379268       -4.1850830974
 H        -5.1370235195        6.7836421397        2.3159776334
 H        -3.9652028631        7.7200660417        1.1741692546
 H        -3.9218319420        5.9387149503        1.3874283597
 H        -3.6222085549        7.7386302888       -2.3301819937
 H        -4.2019039687        5.9986350768       -2.4424011022
 H        -3.3461663542        6.5165548905       -0.8919162739
 H        -4.6477225855        9.0916710178       -0.3523589950
 H        -6.3936505844        9.0388585812       -0.4021327786
 H        -5.5788800453        9.3288088792       -1.7870623224
 H        -7.0071944970        5.8087730378       -8.3513862469
 H        -7.1877529926        7.3587893553       -8.9542551400
 H        -8.4444554656        6.1322309967       -9.1509361289
 H        -9.0156718717        8.5836952089       -8.5022697557
 H        -7.9882174242        9.1046521466       -7.4030496809
 H        -9.5277791320        8.9632097198       -6.7077395160
 H        -6.3010949277        4.4930146427       -4.2680131626
 H        -5.7306050008        3.5630280833       -5.5678153279
 H        -5.3945858835        2.9671085273       -4.0012954727
 H        -7.5166654647        0.3275253630       -5.1965891774
 H        -6.1395523241        0.7863533571       -4.2937320552
 H        -6.1460698043        1.0101711930       -6.1391345451
 H       -11.3287696074        0.3010320919        0.4427611464
 H       -12.4164038318        1.2097256188       -0.7868118652
 H       -12.7986737565        1.5187202925        0.7175750809
 H       -11.5290411214        4.1076206844        1.5970606879
 H       -12.4380186022        3.7176956831        0.0759590382
 H       -11.1201200712        4.5466089733       -0.1408953102
 H        -9.7187586845        2.8425977628        6.6924229933
 H       -11.2310692749        2.8811419771        7.5026442032
 H       -11.2341507090        3.2070299453        5.7074648184
 H        -9.4822290938        1.0010708046        8.0109532967
 H        -9.0001893170       -0.1973151954        6.8471953671
 H       -10.7173975751       -0.5396368803        7.4661988948
 H       -17.6679025375        4.2093714857        5.5701883044
 H       -16.5696464506        3.2805750729        4.4622849118
 H       -15.8394693934        4.3407563548        5.7584410306
 H       -16.9025014731        3.8749338111        8.0979193639
 H       -17.2179346986        2.1723577617        8.4958093630
 H       -18.5860391148        3.1500099465        7.6376080287
 Na       -7.8816502560        4.8449737524       -0.8571035951
