117

 C       -19.0495043922        2.6588819698        5.5402586124
 C       -17.8647178789        2.0514068248        6.2104327993
 O       -17.6314158349        0.8693103261        6.4439871843
 C       -16.9142394824        3.1362725492        6.9463399740
 C       -15.7163865951        2.2095498785        7.4749490605
 O       -15.4346501276        1.7972647608        8.5654101690
 C       -14.8009554588        1.8420107874        6.1820464010
 C       -13.5775295863        0.9474303710        6.6487450223
 C       -12.4778641798        1.0506463952        5.5652981054
 O       -12.8736975061        0.9209790854        4.4016588315
 C       -10.9292473654        1.4316929733        5.9479727630
 C        -9.8990950368        1.1710941323        4.6522925673
 O        -8.9864138925        0.3808000635        4.6345153656
 C       -10.0175607469        2.1253246818        3.4034245056
 C        -9.3871362211        1.4280407459        2.2715664712
 C        -9.4933754261        2.2994465063        0.9944332885
 O        -8.5446928356        3.0778663850        0.8210638852
 C       -10.6687890694        2.5447455333        0.0305572512
 C       -10.1151083973        2.5492199467       -1.5038997987
 O        -9.9170508718        3.6283407875       -2.1577680514
 C        -9.9948940409        1.2406786920       -2.2204196242
 C        -8.5327635575        0.7875247036       -2.0840034873
 C        -7.6546299748        1.7455591612       -2.8562856973
 O        -7.2943424451        2.7846692794       -2.3178547939
 C        -7.2561326852        1.5845762335       -4.4248222324
 C        -8.4920849837        2.2048570777       -5.1525311196
 O        -9.3174370486        1.4316670114       -5.5266731200
 C        -8.7009640554        3.7232682560       -5.4112169421
 C        -8.3900103221        4.2585723239       -6.8337026953
 C        -9.1142093930        5.5875992334       -7.2038260235
 O       -10.2910568126        5.6157860096       -7.4595504770
 C        -8.2375016149        6.8549076688       -7.2471593627
 C        -7.4773616911        6.8236286072       -5.7573312854
 O        -6.4571348059        6.2286898012       -5.6185274715
 C        -7.9454755199        7.7686777963       -4.6353829098
 C        -6.7607106098        8.1267093101       -3.7611308030
 C        -6.6764353653        7.2363816364       -2.5776194727
 O        -7.6665839753        6.6835824561       -2.1595384102
 C        -5.3341131202        7.1797573965       -1.6505906546
 C        -5.4836562902        6.5116122466       -0.3566186046
 O        -6.0131282000        5.4051332952       -0.2698618392
 C        -4.8648221776        7.1369100886        1.0210733472
 C        -4.2792299315        6.6913232006       -2.6663810751
 C        -5.0903683992        8.7782117380       -1.3648087114
 C        -6.9456260861        6.7339619638       -8.2707038426
 C        -8.9708449623        8.2004618931       -7.3714227850
 C        -6.0287461899        2.4330531357       -4.7721456552
 C        -7.1500097083        0.1601557116       -4.9923854392
 C       -11.7285238911        1.5071981349        0.2563527017
 C       -11.2198180235        3.9072616713        0.4346549092
 C       -11.0628093821        2.9711792769        6.2211977545
 C       -10.6172799142        0.5340578373        7.1660553258
 C       -16.4394567770        4.3846825011        6.0752812692
 C       -17.6368251201        3.6229743854        8.2381859881
 H       -19.8960074418        1.9819785194        5.6123794303
 H       -18.9789876298        2.6124453291        4.4137729545
 H       -19.0992824137        3.6931343421        5.7952698703
 H       -14.4512898900        2.7481569381        5.6593331248
 H       -15.2526852305        1.4761187674        5.3019892665
 H       -13.9405949971       -0.0788725101        6.7655458047
 H       -13.1382954070        1.2585806152        7.5901650992
 H        -9.5434514924        3.1102031312        3.5263707657
 H       -11.0540758608        2.3121110285        3.1524229204
 H        -9.6254252971        0.3444045183        2.1088071835
 H        -8.3363183172        1.3691358963        2.5418357751
 H       -10.1777289024        1.4589120869       -3.2422436899
 H       -10.7195522830        0.5193713790       -1.9212771553
 H        -8.2231586252       -0.1161723053       -2.4700531663
 H        -8.2945603860        0.8127552342       -0.9546158813
 H        -8.2400689960        4.2233664345       -4.5767059472
 H        -9.7519922284        3.9322706616       -5.3513599003
 H        -8.8050944098        3.6523850666       -7.6259038042
 H        -7.2902384759        4.2408381491       -7.1758042106
 H        -8.5961455107        7.4388009869       -3.9560540371
 H        -8.4707619198        8.6487563948       -4.9490056639
 H        -6.9210350206        9.1382594413       -3.3083243748
 H        -5.9466683686        8.3280597805       -4.3932934141
 H        -4.4939707369        8.1016832748        0.7814888492
 H        -3.9447552787        6.5359822761        1.2601649098
 H        -5.5569848757        7.1866250973        1.7969677345
 H        -4.0405771414        7.4700856736       -3.2952111865
 H        -4.7020816140        5.7829046715       -3.1032798816
 H        -3.3569197966        6.5310086628       -2.0021803265
 H        -4.1000450848        8.7699408206       -0.7886685130
 H        -5.8770560291        9.1647212987       -0.8088258370
 H        -4.9618199855        9.3005630978       -2.2789596422
 H        -6.2510596276        6.0072151587       -7.8466333579
 H        -6.4823478842        7.6801319721       -8.5135989386
 H        -7.2126581910        6.4961795002       -9.2845909951
 H        -9.4146365780        8.4722185728       -8.3170770108
 H        -8.2760561431        9.0179554629       -7.0391922845
 H        -9.8118920784        8.1740436709       -6.7396472383
 H        -5.9575702832        3.2732482881       -4.1279809050
 H        -5.8855552239        2.7026647172       -5.8640885174
 H        -5.0876784585        1.9201496263       -4.4182830448
 H        -8.1856051724       -0.2378815268       -4.9685384375
 H        -6.3510275647       -0.4795088070       -4.5579948698
 H        -6.7264333730        0.0491525778       -5.9970998612
 H       -11.4092135148        0.4295586912        0.2840750572
 H       -12.2964928290        1.4969893327       -0.5978682376
 H       -12.2319299194        1.5921334893        1.2011605577
 H       -11.6118877176        3.9354707047        1.4355581946
 H       -12.0535647214        4.0070845617       -0.1695204401
 H       -10.5134645290        4.7246754259        0.3180492023
 H       -10.1775125792        3.3736496394        6.6718143714
 H       -11.8301734165        2.9271814716        7.1399860400
 H       -11.4376497457        3.5156476618        5.3697681812
 H        -9.6543652112        0.1383410753        7.0789707264
 H       -11.3067261107       -0.2788897718        7.4131560861
 H       -10.4757132997        1.1481330494        8.0429501457
 H       -17.2119223822        5.0641023842        6.3794669082
 H       -16.4765374036        4.2647463897        4.9953694990
 H       -15.5041488961        4.8171857196        6.4903873665
 H       -17.0637050090        4.4323164039        8.5605274499
 H       -17.6547300631        2.7584977190        8.8982664567
 H       -18.6134129929        3.7996530998        7.8554502286
 Na       -7.9456235600        4.4022032423       -1.1186395972
