117

 C       -19.2740618499        3.1767886985        5.5951309332
 C       -18.0601884233        2.4038100719        6.2817378293
 O       -17.9039392709        1.2193578251        6.1961859336
 C       -16.9827604617        3.2724778744        7.2230428777
 C       -15.7854772978        2.4691919240        7.4518325764
 O       -15.2340217193        2.1641741117        8.5038609221
 C       -14.8935031983        2.0899300743        6.2433639049
 C       -13.7203533474        1.1572220645        6.4512814253
 C       -12.5663997141        1.2715956211        5.4996852552
 O       -12.8126550200        1.1313895993        4.2929869760
 C       -11.0420271826        1.5508801176        5.9420759276
 C       -10.0159807066        1.0836208540        4.7295642417
 O        -9.5092512837       -0.0060297151        4.5691991713
 C       -10.0294099531        2.0694786578        3.5523054963
 C        -9.4749830778        1.3004844559        2.2833592465
 C        -9.5644882551        2.3534037082        1.1049102954
 O        -8.5193079641        2.9702551021        0.8427387772
 C       -10.7140527994        2.6179820457        0.0780532288
 C       -10.1212203181        2.5234777248       -1.3796630758
 O        -9.7771048468        3.5257529101       -2.1043617056
 C        -9.9592096147        1.2160813473       -2.0545173756
 C        -8.4607181417        0.7920980188       -2.1908878869
 C        -7.5707573213        1.7252051879       -3.0879763749
 O        -6.9939418477        2.6838906293       -2.5756719681
 C        -7.3041447113        1.2150726926       -4.5313905252
 C        -8.5148498897        1.9547620735       -5.1555352429
 O        -9.5557594676        1.3990777847       -5.4173863577
 C        -8.4839948236        3.5994526536       -5.1349887219
 C        -7.8574380020        4.0608784441       -6.5050075689
 C        -8.6887884383        5.2314300764       -7.1319947471
 O        -9.7980671949        5.0254539322       -7.5877186330
 C        -7.9397125539        6.6430056146       -7.1645024358
 C        -7.3969676209        7.0792115870       -5.7570956734
 O        -6.6281784372        6.3457926426       -5.2648928176
 C        -7.9381158262        8.2667380361       -4.9448608133
 C        -7.2904694885        8.4933025472       -3.5699019221
 C        -6.9101114907        7.4650948116       -2.4863983154
 O        -7.7893210213        6.7361561643       -2.0705910081
 C        -5.5096428667        7.4172924714       -1.8102470733
 C        -5.4049211388        6.5104097411       -0.4311500690
 O        -5.4883208295        5.2960515973       -0.5877328889
 C        -4.8880551168        7.0373460256        0.8657905073
 C        -4.8128490766        6.4382658658       -2.8640816134
 C        -4.7033075904        8.6857233970       -1.6481384067
 C        -6.8874553622        6.4663297437       -8.3279926806
 C        -9.1519577229        7.4922018350       -7.6011337364
 C        -5.9062775767        1.8898851543       -4.9916582462
 C        -7.2047895744       -0.2780097321       -4.7969077106
 C       -11.8446491280        1.5716183743        0.2659054172
 C       -11.3316080193        3.9941034777        0.1933513208
 C       -10.8164443053        3.1397183529        6.2507095527
 C       -10.6498631559        0.8032261346        7.2488094286
 C       -16.7485940996        4.6828161495        6.4461880980
 C       -17.4696942492        3.7086767230        8.6689285878
 H       -20.1043623116        2.4839230858        5.2851623451
 H       -18.9951959916        3.8827704536        4.7413125832
 H       -19.5888132352        3.9374856397        6.3513829616
 H       -14.5480241052        2.9612451697        5.6863049272
 H       -15.5258034360        1.7223406750        5.4361298146
 H       -14.1049993607        0.1009926093        6.1807388324
 H       -13.3608716729        1.1371719507        7.5010666781
 H        -9.5805581423        3.0136460671        3.8985919124
 H       -11.1068345536        2.2446064398        3.4655514233
 H        -9.9918618388        0.2973445262        2.2200420796
 H        -8.4223715973        1.1439758332        2.5450009881
 H       -10.2271506977        1.2104775470       -3.1532955883
 H       -10.5117793329        0.4076997056       -1.5984130507
 H        -8.6117150514       -0.0964628470       -2.7050830782
 H        -7.8728977433        0.7024754093       -1.2238925629
 H        -7.9516720303        4.1110135589       -4.2659380565
 H        -9.5392884670        3.9013291984       -5.0431312834
 H        -7.9565731362        3.3269494775       -7.3072532678
 H        -6.8013361649        4.2793652359       -6.4869269509
 H        -9.0227692776        8.2684118437       -4.7748333290
 H        -7.8349935096        9.2231968275       -5.4540182849
 H        -7.9885491072        9.1051610291       -2.9748426164
 H        -6.5334987801        9.1895769072       -3.8175250544
 H        -3.9147806925        6.4992551247        1.0899955301
 H        -5.5710644311        6.5231401340        1.6155683407
 H        -4.9738765757        8.0809943857        0.9849083809
 H        -4.1006808958        7.1042242344       -3.2637720626
 H        -5.6306234139        6.2730431084       -3.5899770137
 H        -4.3374769899        5.4524197093       -2.4378733330
 H        -3.6479794963        8.5013213033       -1.3052214476
 H        -5.2501680080        9.1922513954       -0.9500899584
 H        -4.6056839162        9.2166872054       -2.5836406342
 H        -6.1969706711        5.6413147435       -8.0235010764
 H        -6.3687958534        7.3274890089       -8.7128840849
 H        -7.3914141564        6.1562159289       -9.1925134855
 H        -9.8595313742        7.0008444301       -8.2374013742
 H        -8.7363909091        8.4899067053       -8.0602578918
 H        -9.8014588358        7.8022166547       -6.8534593746
 H        -5.9427979507        2.8805834380       -5.1462890948
 H        -5.6652513414        1.4233380911       -5.9298884664
 H        -5.0727995281        1.8112886400       -4.3332857541
 H        -8.1310272455       -0.7148011969       -4.6150469889
 H        -6.4373127592       -0.7445830070       -4.1687648242
 H        -6.9311106556       -0.5259593865       -5.8361890120
 H       -11.4986920712        0.4874734099       -0.0709513987
 H       -12.7081358828        1.7902099654       -0.4026777969
 H       -12.0801976894        1.5690383128        1.3774265540
 H       -11.5709557953        4.3330542227        1.1697577247
 H       -12.2846725579        4.0370190771       -0.3762794112
 H       -10.4676020871        4.6512609921       -0.2062952636
 H        -9.7682846700        3.3270859771        6.1339553849
 H       -11.4104302428        3.5133856611        7.1469403352
 H       -11.1193219104        3.6756319166        5.3967135128
 H       -10.0392545347       -0.1061638416        7.0896935488
 H       -11.5957827137        0.3866087384        7.8016297239
 H        -9.8582570760        1.2833966145        7.9724867533
 H       -17.6441719887        5.0128752140        6.0398445084
 H       -16.1234342967        4.4803099000        5.5673750599
 H       -16.1096924196        5.3647872026        7.1236593670
 H       -16.5443591707        4.1487264894        8.9807978616
 H       -17.4951307446        2.6871761108        9.1676210503
 H       -18.3915710687        4.3179383307        8.6099025105
 Na       -7.6599099327        4.4716360009       -1.0505277074
