117

 C       -19.4048820529        3.7302611781        6.2421048799
 C       -18.1716376325        2.9553465241        6.4296786840
 O       -18.0208169040        1.8046743836        5.9578478824
 C       -17.1355104913        3.6732943837        7.3686711099
 C       -15.6858693987        2.9513651745        7.4972060534
 O       -15.1699145384        2.7230782856        8.5270524650
 C       -15.0536030184        2.3645254715        6.1785457845
 C       -13.7120352387        1.7401556215        6.3794633588
 C       -12.7667465224        1.7398327691        5.2818936501
 O       -12.9343403795        1.7690830274        4.0641056949
 C       -11.2074716897        1.6318532112        5.8204052674
 C       -10.3679826437        1.1356925949        4.4977518468
 O       -10.1404162981       -0.0041448278        4.4094242834
 C        -9.9275167333        2.1317429210        3.4298326861
 C        -9.2401271878        1.3764999578        2.2071355473
 C        -9.4354267170        2.4263132863        1.0070091414
 O        -8.3630848974        3.0516170343        0.9688250644
 C       -10.6313706976        2.6849747549       -0.0179223454
 C       -10.0182203019        2.4632697105       -1.3599775741
 O        -9.6894090863        3.4536302067       -2.0955353231
 C        -9.6333280658        0.9897563983       -1.7404101684
 C        -8.1153033783        0.6855586011       -1.6600396497
 C        -7.4128830123        1.3882950804       -2.9202994612
 O        -6.7664034940        2.3735990695       -2.6052421370
 C        -7.2611615325        0.8620640752       -4.4027143720
 C        -8.5062054941        1.6854347794       -5.1018801634
 O        -9.5085421122        1.1004259605       -5.4421552979
 C        -8.3382063063        3.2309125867       -5.1892498328
 C        -7.5615295764        3.8744157539       -6.4112426827
 C        -8.3456097473        5.0654988092       -7.0539112982
 O        -9.4045008740        4.7855649275       -7.6057879838
 C        -7.8937782524        6.6406030465       -7.0743362407
 C        -7.6051770713        6.8199372312       -5.5187138702
 O        -6.6377964981        6.3279891277       -5.0511040589
 C        -8.4268416740        7.7469524806       -4.6331814086
 C        -7.3424588246        8.2831363760       -3.6554388435
 C        -6.8556756532        7.1585080867       -2.8527236779
 O        -7.7006791510        6.4002017922       -2.4295997513
 C        -5.3198793401        7.1148233634       -2.2436570726
 C        -5.3943258153        6.5820643835       -0.7916837092
 O        -5.8629816255        5.4501061299       -0.7139363339
 C        -5.3086613488        7.4118819498        0.4610978725
 C        -4.3676134100        6.1835436274       -3.0502205876
 C        -4.9187010213        8.5979851323       -2.2134521632
 C        -6.5577277662        6.8188415723       -7.9218784370
 C        -9.1346104655        7.3425603538       -7.4886608001
 C        -5.7901149403        1.0664096586       -4.8533959011
 C        -7.6875496567       -0.6945898971       -4.3844686167
 C       -11.7497975159        1.6636187937        0.2033440738
 C       -11.0966586442        4.0987745884        0.1647975962
 C       -10.9666053019        3.0715354128        6.1750855912
 C       -10.9125011531        0.7295777631        7.0097085136
 C       -16.7147629234        5.1654793848        6.9763924981
 C       -17.7375089904        3.5233515740        8.8863227183
 H       -20.0519149232        3.2962567358        5.4817873363
 H       -19.0626120330        4.7604533307        6.0954896686
 H       -19.9516555959        3.6770326736        7.1510396578
 H       -15.0338331198        3.1813706017        5.4090664678
 H       -15.7848881074        1.6528850584        5.8148534969
 H       -13.7814293835        0.7697165474        6.9329303986
 H       -13.2404460380        2.3865120300        7.1068109961
 H        -9.3854489305        3.0000561750        3.8318950372
 H       -10.9260405149        2.5183579029        3.2064006419
 H        -9.6041589384        0.3435224976        2.0132640057
 H        -8.1782759457        1.4222707141        2.3599012002
 H       -10.0591030505        0.7039481802       -2.7758400695
 H       -10.1509355783        0.3034002764       -1.0219963701
 H        -8.0789793758       -0.2967921533       -1.9694321992
 H        -7.6585007805        0.8036928039       -0.6063012682
 H        -7.7752469525        3.6777700843       -4.2988606640
 H        -9.3554122623        3.6320385397       -5.0060643654
 H        -7.3021215525        3.1388138976       -7.1367390912
 H        -6.6533189517        4.3577213461       -5.9910408590
 H        -9.2110252803        7.2407545271       -4.0668972197
 H        -8.8887245517        8.6896085897       -5.1625942423
 H        -7.8823956217        9.0452369704       -3.0137144089
 H        -6.6175827013        8.6475283990       -4.3549248835
 H        -6.3165134918        7.8273432100        0.4120937882
 H        -4.6342710574        8.3506330116        0.3609561279
 H        -5.0510586750        6.8341489314        1.3176399004
 H        -4.9510400119        5.8150694051       -3.8659481037
 H        -3.9662387046        5.3985898588       -2.4372809674
 H        -3.4870087690        6.7920888774       -3.2814475375
 H        -3.8170130741        8.6193455847       -1.8332758790
 H        -5.5605762406        9.2034618584       -1.5067541811
 H        -4.8779279347        8.9798665171       -3.2193638870
 H        -5.6290011986        6.3184580993       -7.5402972151
 H        -6.2269138331        7.9075880692       -8.0449694997
 H        -6.7497446646        6.2836240555       -8.8949408041
 H        -9.3039545171        7.3140440283       -8.6124390133
 H        -9.1410448960        8.3970117898       -7.1903261007
 H       -10.0235307437        6.8445361756       -7.0248407911
 H        -5.1879621353        1.7896413820       -4.3076612767
 H        -5.7669498902        1.4421795632       -5.9008570694
 H        -5.2684546485        0.0984291926       -4.9264411145
 H        -8.5433286813       -1.0540697489       -3.8684121262
 H        -6.8943180459       -1.1316121398       -3.7881676509
 H        -7.7801012452       -1.1327679941       -5.3563696749
 H       -11.3737113411        0.6443045486        0.1367980919
 H       -12.5603167354        1.9114423270       -0.4054238336
 H       -12.2557920047        1.9916331996        1.1479493391
 H       -11.6800530332        4.0600868608        1.1516064022
 H       -11.7222263716        4.3799291230       -0.6450619683
 H       -10.2092505949        4.8157812702        0.2780407831
 H        -9.9230503087        3.1234322724        6.3523974255
 H       -11.7305908795        3.4215481442        7.0088003774
 H       -11.1306047750        3.7537227135        5.3663611207
 H       -11.7273656958        0.5676150615        7.8344030669
 H       -10.1865271962        1.1356320547        7.7065403613
 H       -10.4863401782       -0.3301993246        6.7146475081
 H       -17.4274724645        5.6749805980        7.5603577336
 H       -16.7611081313        5.5066217246        5.9516332938
 H       -15.7116839915        5.3924751140        7.4045761132
 H       -16.9293855807        3.8425660941        9.4870521202
 H       -18.0227016033        2.4981136923        8.9814806624
 H       -18.4346677230        4.3465569500        8.9155920240
 Na       -7.5932032645        4.2441777008       -1.2864609976
