117

 C       -19.5857973479        3.8824554822        6.2055163669
 C       -18.1518958010        3.1144738818        6.4448689958
 O       -17.9228462429        2.0590287519        5.8865037740
 C       -17.1381173986        3.6959230589        7.5683023164
 C       -15.8266394786        2.8350369614        7.5012136111
 O       -15.1119674934        2.8562704362        8.4960413630
 C       -15.1612190897        2.4396310683        6.1589452629
 C       -13.7935231576        1.8745216784        6.4572101626
 C       -12.7708462166        1.7294628445        5.2675465757
 O       -13.0231134973        2.0370946942        4.1560543025
 C       -11.2412833848        1.6233806779        5.7392885306
 C       -10.4870334290        1.1048855908        4.4853724294
 O       -10.1209363436       -0.0555774036        4.3677036636
 C       -10.0339691292        2.1811946732        3.3876977717
 C        -9.4133086009        1.4996511610        2.2449965536
 C        -9.1030347776        2.4949268237        0.9901230967
 O        -8.2387185860        3.2514147050        0.7533273707
 C       -10.4272651067        2.6382773955        0.1250898648
 C        -9.9065232363        2.4257156781       -1.3719944601
 O        -9.8334874177        3.2682901532       -2.2732906115
 C        -9.6256010414        0.9127085784       -1.7574010301
 C        -8.0412556181        0.6962875774       -1.6541317083
 C        -7.2866713374        1.3394521624       -2.8465084289
 O        -6.7777842772        2.4352062765       -2.5916763048
 C        -7.2821486634        0.7513551217       -4.1679907181
 C        -8.3557223703        1.6314881448       -5.0921947423
 O        -9.3510130454        1.0920227988       -5.4742739513
 C        -8.3075288222        3.2119773248       -5.1297160941
 C        -7.5259203792        3.7972999085       -6.3633101420
 C        -8.3523458830        4.9576349940       -7.0761633898
 O        -9.3351505096        4.7504446058       -7.7236244488
 C        -7.9388589717        6.5199672257       -7.0230550728
 C        -7.5337073542        6.7211923448       -5.5922577647
 O        -6.6451954703        6.0340948633       -5.0405168215
 C        -8.4861299489        7.7161310009       -4.7302480668
 C        -7.5882225056        8.3778264036       -3.4612046231
 C        -6.8490505255        7.0728426421       -2.8434761231
 O        -7.5970682686        6.1492126674       -2.5986555917
 C        -5.2974320943        7.1636243473       -2.2544357283
 C        -5.5845249235        6.6074740342       -0.8144695063
 O        -5.7336655890        5.4048563401       -0.5327980214
 C        -5.3301933061        7.6390700742        0.4192535844
 C        -4.2972179498        6.2092972302       -3.0355199963
 C        -4.7322532464        8.6409162312       -2.3055569358
 C        -6.7175673744        6.7443730558       -7.8689880389
 C        -9.0609641804        7.4478359486       -7.4749042371
 C        -5.9425751203        0.9292618822       -4.7933220070
 C        -7.7876358298       -0.6966524292       -4.3717899210
 C       -11.7139665165        1.6981585260        0.2306849063
 C       -10.9897578538        4.0881962755        0.1635509334
 C       -10.8369883752        3.0841598776        6.0619957707
 C       -11.0946366669        0.7062459426        6.9195962365
 C       -16.8595201507        5.1465241498        7.1814954298
 C       -17.5996238561        3.6736895836        8.9703813288
 H       -20.1494164557        3.4759495318        5.3225310583
 H       -19.2584567274        4.9376828208        6.1507733670
 H       -20.2295028401        3.6340351284        7.0966169036
 H       -15.1825255045        3.3919949591        5.5772049016
 H       -15.7121312965        1.6680586643        5.6469041118
 H       -14.0241001241        0.8931357845        6.9612416090
 H       -13.3676456522        2.4482494852        7.3414794431
 H        -9.2995729020        2.8442821354        3.8644843001
 H       -10.8930241860        2.8049359772        3.1789747683
 H       -10.1318232459        0.8470267271        1.7335197081
 H        -8.5026355328        0.9307573100        2.5443536529
 H       -10.1890691000        0.6809256114       -2.6518493791
 H       -10.0993407238        0.2772646716       -0.9581692854
 H        -7.7005624670       -0.3465921016       -1.5441240499
 H        -7.7808277468        1.2527816161       -0.7349616632
 H        -7.8902305535        3.6846722516       -4.2258459528
 H        -9.3980504542        3.4475839565       -5.0327889262
 H        -7.7083431652        3.0365676613       -7.0435790382
 H        -6.4074671095        3.8922583322       -6.1991895710
 H        -9.1552213730        7.0945174976       -4.2663221046
 H        -8.9992392280        8.4282150157       -5.2810006863
 H        -8.2957241981        8.7034809814       -2.7535155203
 H        -6.9360225755        9.0663311379       -3.8985327589
 H        -5.7089688633        8.6028569450        0.1801306195
 H        -4.2469526587        7.8125260088        0.5876856953
 H        -5.7557831529        7.1492379975        1.3827011705
 H        -5.0553798946        5.4175290277       -3.4618836695
 H        -3.6967344606        5.7356928479       -2.2301555490
 H        -3.5567846578        6.7162086242       -3.6369190881
 H        -3.9721420329        8.6577464653       -1.6256588225
 H        -5.5307172320        9.3418618910       -1.8957970033
 H        -4.4076330285        8.9456020330       -3.2913397750
 H        -5.7974549495        6.4166121296       -7.5297587592
 H        -6.5313213944        7.7806977221       -8.0772844663
 H        -6.9266680954        6.1312323325       -8.7717430535
 H        -9.3719637465        7.1402633322       -8.5084887856
 H        -8.6542954789        8.3821774564       -7.6357847516
 H       -10.0278845152        7.5398989434       -6.8361060787
 H        -5.4071837183        1.8448154959       -4.4811471121
 H        -6.0022132757        1.0451319454       -5.8120228516
 H        -5.3652310630        0.0848436514       -4.6516189915
 H        -8.7850217894       -0.9540474218       -4.0392564016
 H        -7.2563475439       -1.2494671722       -3.6594787013
 H        -7.7380044479       -0.9888278103       -5.3558909192
 H       -11.4653628012        0.6368136291        0.3217326306
 H       -12.4082058651        2.0150305105       -0.6447874813
 H       -12.4386541728        2.1695267737        0.9545333350
 H       -11.3720116668        4.2913965134        1.2478719465
 H       -11.8265854711        3.9997129204       -0.5358153829
 H       -10.3326453189        4.8682242739       -0.1987502219
 H        -9.7897456053        2.9572749000        6.3553238457
 H       -11.4606089847        3.3059031607        6.8921934183
 H       -10.9523513986        3.9416585851        5.3271090462
 H       -11.5600709166        1.0893239615        7.9156124834
 H       -10.0218960618        0.5356504645        7.2850039412
 H       -11.3784753222       -0.3222585175        6.7310121714
 H       -17.8061571189        5.6152579778        7.6434493767
 H       -16.8271603668        5.3237089076        6.0720978891
 H       -16.0133375120        5.5805458851        7.6326436279
 H       -16.7831276768        4.2347151866        9.5127373760
 H       -17.7472873668        2.6709383587        9.1917362726
 H       -18.3823396165        4.4500809863        8.9561203224
 Na       -7.6094435885        4.0365847912       -1.3548889713
