117

 C       -19.5769684416        3.9388425273        6.2690307060
 C       -18.2150872286        3.1859067791        6.6265674217
 O       -17.9320958706        2.4037118526        5.7808039246
 C       -17.2615111048        3.7652024014        7.7002021731
 C       -15.7416526931        3.0673709181        7.4392930158
 O       -15.1282021279        2.8943933419        8.4993040519
 C       -15.1831123834        2.4811957057        6.1139280675
 C       -13.8217740904        1.8608310064        6.4838314507
 C       -12.7999741032        2.0084021691        5.2976192900
 O       -13.2468129164        2.2677008986        4.1769371053
 C       -11.2745857529        1.6487386737        5.7028259546
 C       -10.4417018559        1.1249036772        4.4908270798
 O       -10.1374498625       -0.0732282952        4.3014319994
 C       -10.0813457388        2.1800689686        3.3758321054
 C        -9.3877684053        1.7147427972        2.1652110314
 C        -9.2294401222        2.6389138629        0.9716732538
 O        -8.1599237692        3.1457283227        0.7965824687
 C       -10.4698168100        2.6684073612       -0.0873264581
 C        -9.9867598286        2.2132082180       -1.5004666308
 O        -9.8851582799        3.0840889559       -2.2913025396
 C        -9.5016503742        0.8258084457       -1.7581965312
 C        -8.0417464583        0.6058673364       -1.5255070323
 C        -7.2553580349        1.3926136905       -2.7194641854
 O        -6.6841967193        2.4561932208       -2.6651003398
 C        -7.3509920993        0.7340319925       -4.1007497021
 C        -8.3943531409        1.6985053067       -4.9119050940
 O        -9.1720649597        1.0912876542       -5.5972269151
 C        -8.2543066735        3.2188152820       -5.1564067598
 C        -7.5832494286        3.7087819963       -6.4960187287
 C        -8.4834519900        4.7661274070       -7.1278985221
 O        -9.3842261713        4.5697525092       -7.8734639569
 C        -7.9677786609        6.4211736321       -6.9688644819
 C        -7.5478325587        6.7107291094       -5.4936660044
 O        -6.6275960784        5.9951315549       -5.0155007727
 C        -8.3190062942        7.6909384944       -4.6884675837
 C        -7.6580233559        8.1688336363       -3.3168619035
 C        -6.8774165527        6.9972544299       -2.7081101809
 O        -7.3557447975        5.8587651445       -2.6262745042
 C        -5.5048171591        7.1992507624       -2.1657234058
 C        -5.5178952874        6.6656393131       -0.7781215440
 O        -5.6909337628        5.5296013314       -0.4252625655
 C        -5.3388443595        7.7494156245        0.3541046714
 C        -4.4830496417        6.2127222211       -2.9639165452
 C        -4.7090591736        8.5352484858       -2.3992195029
 C        -6.6836136718        6.5720603585       -7.9260623262
 C        -9.0556210166        7.4160505222       -7.5330913787
 C        -5.9338747132        0.8157078452       -4.9122277626
 C        -7.8412840425       -0.7083421074       -4.2620400006
 C       -11.5670976426        1.7477211422        0.3543734771
 C       -10.8253854158        4.2185469198        0.1269316186
 C       -10.6586256051        3.0914181329        6.0494520573
 C       -11.2334678489        0.6483040897        6.8043177099
 C       -16.9545068063        5.2297685692        7.1951649684
 C       -17.7078810748        3.7066643999        9.1765986655
 H       -19.8785966298        3.4662419475        5.2937456512
 H       -19.2663362849        5.0004342704        6.1682988585
 H       -20.4080116753        3.5996557722        6.9890475543
 H       -14.9760780102        3.2982232589        5.3970491831
 H       -15.9609433673        1.7466606765        5.7124888325
 H       -13.9112568255        0.7987672289        6.7224699074
 H       -13.5690205893        2.2874558238        7.5217997421
 H        -9.4002549713        2.9106715296        3.8163969277
 H       -11.0026962471        2.7476011259        3.1865089153
 H        -9.8706973522        0.8921319944        1.6819149212
 H        -8.3139409963        1.4162754307        2.2488631335
 H        -9.7550906738        0.6744749223       -2.7716634946
 H       -10.1644768838        0.1163853688       -1.2859468576
 H        -7.7522453100       -0.5083296711       -1.6873112765
 H        -7.7448081114        0.8563801916       -0.5592122065
 H        -7.6390057783        3.7143645596       -4.4660583047
 H        -9.2496719795        3.5609587383       -4.8761767436
 H        -7.5809714563        2.8473858578       -7.2438977221
 H        -6.6026776478        4.0234430985       -6.2452918943
 H        -9.2906630715        7.3255460768       -4.3921088028
 H        -8.3992066602        8.5779756857       -5.2380329146
 H        -8.5181261217        8.3344241753       -2.7437320576
 H        -6.9909681347        8.9709676553       -3.6108072979
 H        -5.1115557890        8.7698258257       -0.0604749665
 H        -4.5570238162        7.5331335171        0.9989963675
 H        -6.2617153154        7.7155843414        1.0002678491
 H        -4.8600371162        5.2181520274       -2.8293159683
 H        -3.5971714614        6.4302193225       -2.2679819279
 H        -4.1075608003        6.5699032468       -3.9568027843
 H        -4.0268955716        8.5020820389       -1.6091546919
 H        -5.3341809358        9.3741626835       -2.2370394124
 H        -4.2790696379        8.6771761307       -3.3987035983
 H        -5.7422598483        6.1645089817       -7.6514619773
 H        -6.4430639201        7.5641725228       -7.9944252333
 H        -6.9106476873        6.1510563484       -8.8239769396
 H        -9.3996202422        6.9687681868       -8.4210429246
 H        -8.5136186572        8.3031598729       -8.0005250685
 H        -9.8623470795        7.7432086469       -6.9445413673
 H        -5.6447707998        1.8102905587       -4.9420238365
 H        -5.8096057595        0.4571907294       -5.9113637110
 H        -5.2718526305        0.2670184098       -4.3014584037
 H        -8.8890168323       -0.8200486653       -4.0329991140
 H        -7.4939787562       -1.3277970998       -3.4787718599
 H        -7.7827468140       -1.0263998741       -5.3126292500
 H       -11.0814896382        0.7809176909        0.6182410328
 H       -12.4250990985        1.7080267286       -0.3793668464
 H       -12.1269089178        2.2325473443        1.1137086249
 H       -10.7929317926        4.3158211027        1.1364845967
 H       -11.8368401463        4.4880596123       -0.3321066652
 H       -10.1168612086        4.8665634691       -0.3565626913
 H        -9.5315477036        2.9922482169        6.2251566328
 H       -11.0735244409        3.3575360685        6.9882499599
 H       -10.9176784216        3.8890417640        5.3156941625
 H       -11.0206393234        1.0913873714        7.6670663943
 H       -10.3380957690       -0.0714840305        6.6694783837
 H       -11.9675128949       -0.0528740711        6.9474029122
 H       -17.8075169313        5.9577243026        7.2166131158
 H       -16.4017462170        5.1527084247        6.2363326666
 H       -16.2069231373        5.6172427109        7.9314350403
 H       -17.0184716690        4.4005357272        9.6706196422
 H       -17.6322652869        2.6124373459        9.4013997283
 H       -18.6139942300        4.2572915782        9.1920428102
 Na       -7.5772738143        4.0000787997       -1.4058861736
