117

 C       -19.8353468246        4.1513338490        6.8897517000
 C       -18.3677592019        3.5873689187        6.4901230401
 O       -18.0682460631        2.8682596269        5.5893202594
 C       -17.2889538692        4.0972632855        7.5711270571
 C       -15.8183747946        3.3928322049        7.6393723421
 O       -15.3134693078        3.1207414878        8.7222199440
 C       -15.1619486409        2.9959171978        6.2927269839
 C       -13.8767576675        2.1104274234        6.4320570774
 C       -12.7211102052        2.3199083662        5.3180927939
 O       -12.9936167789        3.0254090921        4.3953202841
 C       -11.2801212804        1.7483064240        5.6385643532
 C       -10.5561281053        1.3663980643        4.3557762048
 O       -10.4040160911        0.1825587530        3.9466396943
 C       -10.1883136009        2.5639746239        3.3149498525
 C        -9.3682004577        1.9539141959        2.2433076002
 C        -9.1175236894        2.5774403171        0.8759638915
 O        -8.0260792984        2.9250185527        0.6294687752
 C       -10.4167418123        2.7561488847       -0.0680291809
 C        -9.9246945546        2.0433466571       -1.4040043336
 O        -9.6386828211        2.8162931397       -2.2559684868
 C        -9.4375479316        0.5882937137       -1.5423101650
 C        -7.8977785059        0.5373115921       -1.5937761322
 C        -7.2154213236        1.2652978851       -2.7867577656
 O        -6.4456821568        2.1950918379       -2.6108622393
 C        -7.3297793564        0.6873947293       -4.2106321253
 C        -8.2331263901        1.5391194799       -5.1479348760
 O        -9.0679889437        1.0077854726       -5.8492487966
 C        -7.9332452082        3.0387323805       -5.2791860915
 C        -7.7853360092        3.4338997375       -6.7931947952
 C        -8.5026779735        4.6196402745       -7.3566202425
 O        -9.5476534437        4.3415204879       -7.9042491305
 C        -8.0210826757        6.0252171167       -7.0122909008
 C        -7.4161119702        6.4946008257       -5.6534856829
 O        -6.3616525172        6.0880929626       -5.1895898814
 C        -8.2999106705        7.4692634326       -4.8779151045
 C        -7.8396985891        7.7831100740       -3.3966614713
 C        -6.9948549465        6.6468687383       -2.7048292930
 O        -7.5724004745        5.5845792358       -2.5614875570
 C        -5.5677370307        6.9412015968       -2.0457932965
 C        -5.7423728748        6.7914774809       -0.4809924227
 O        -5.8882363518        5.6646584789        0.0377162256
 C        -5.1986178835        8.0217690588        0.3113073747
 C        -4.4527476181        5.8607013422       -2.4447472723
 C        -4.8726968715        8.3359719272       -2.5371026679
 C        -6.8012222079        6.1069633179       -8.0718360674
 C        -9.0681242763        6.9739253702       -7.7341894116
 C        -5.9695796965        0.7506519294       -4.8215387900
 C        -7.8211925056       -0.7754496993       -4.2966939368
 C       -11.7401258674        2.0404736547        0.2291748449
 C       -10.7543697217        4.3353586217       -0.2214261671
 C       -10.7284389373        2.9305529212        6.4318139661
 C       -11.3383252479        0.4042009026        6.4580184352
 C       -16.8634303772        5.6679553347        7.5607262139
 C       -18.0249021831        3.8648427315        9.0784345176
 H       -20.4037010575        4.1805518855        5.9928574369
 H       -19.7100955472        5.1590286594        7.2002651410
 H       -20.2200956133        3.3009204255        7.4486613335
 H       -14.7840774456        3.8249005635        5.7061064700
 H       -15.8245850742        2.3696768321        5.7859701678
 H       -14.2193613650        1.0757362807        6.3357056161
 H       -13.5271749585        2.0497377827        7.4613696772
 H        -9.4909180858        3.2862151431        3.7597493831
 H       -11.0919345718        3.0788898928        2.9765463837
 H        -9.7391037973        0.9260075646        2.0235972827
 H        -8.2781644657        1.7414947409        2.4136644305
 H        -9.9163987504       -0.0765608058       -2.2592440331
 H        -9.7996470631        0.0204991531       -0.6174941257
 H        -7.6652497817       -0.5594672870       -1.4588815345
 H        -7.4015161924        0.9424850184       -0.7462560187
 H        -7.0373025155        3.2023121426       -4.6462971839
 H        -8.7514391431        3.7277567973       -4.8424895377
 H        -8.2360221140        2.6264749154       -7.2983205542
 H        -6.7072749521        3.5200091809       -7.0756246772
 H        -9.3328286005        7.1017002558       -4.9131764627
 H        -8.1351362953        8.3041656700       -5.4557886216
 H        -8.7646047124        7.8408060928       -2.8254177789
 H        -7.2837278708        8.6922730233       -3.5625202191
 H        -4.1884124047        7.8994934714        0.7263431852
 H        -5.7697201372        8.0863480521        1.2116788880
 H        -5.3433080292        8.9493930282       -0.3637768201
 H        -3.8677768638        5.5591483002       -1.5805827747
 H        -3.8211210547        6.1901843628       -3.3214437920
 H        -5.0077840185        5.0728428011       -2.9193442770
 H        -3.8251376294        8.2881910094       -2.5460072755
 H        -5.1834701004        9.3927265633       -2.3120554457
 H        -5.2456644891        8.1963047943       -3.6031174342
 H        -6.0749536365        5.2147728424       -7.9569266275
 H        -6.0738507394        6.9974833477       -8.0051456883
 H        -7.2545348769        5.9520112915       -9.0814213552
 H        -9.0207530180        6.9886371435       -8.8372834409
 H        -8.8528891471        8.0405700128       -7.4346986871
 H       -10.0559411189        6.7795107708       -7.2538326616
 H        -5.9552996992        1.6888519573       -5.4252296932
 H        -5.9840279168        0.0386609304       -5.6636144421
 H        -5.0421990237        0.5423291410       -4.2704174931
 H        -8.7252054638       -1.1513652845       -3.7731730457
 H        -7.1085307846       -1.4232039897       -3.8384912094
 H        -7.9364348585       -0.9512597589       -5.3556993007
 H       -11.5207910748        0.9393547327        0.2855083486
 H       -12.3871727676        2.1425510771       -0.7518239706
 H       -12.3080515262        2.3388445801        1.1149845730
 H       -11.2226708806        4.6599857403        0.7021322111
 H       -11.2670230508        4.5506637521       -1.2590877839
 H        -9.8330344171        4.8750885108       -0.4159465134
 H        -9.7233817929        2.7495764298        6.8089788745
 H       -11.1810231441        3.0416042348        7.3107086849
 H       -10.8927382379        3.8111698939        5.7499417167
 H       -10.3981817349       -0.1040820064        6.6696776097
 H       -12.3422048403       -0.2320027083        6.1895231869
 H       -11.6089031288        0.5722620852        7.5339126900
 H       -17.6106808403        6.4959479185        7.6958948735
 H       -16.4228221763        5.7251965726        6.5636810912
 H       -16.1749102774        5.8829487724        8.2977591427
 H       -17.0730031042        3.7569328291        9.6362678961
 H       -18.5816914712        2.9465797205        8.9532281284
 H       -18.5927227172        4.7161635748        9.3888544147
 Na       -6.9614604868        4.0057998098       -1.0228548680
