117

 C       -19.8001026534        4.2692652623        6.9190348209
 C       -18.2747366804        3.9373641158        6.6046405147
 O       -17.9688389143        3.5767051580        5.4882817364
 C       -17.2766525562        4.3243635838        7.8021856908
 C       -15.9333276683        3.5549041463        7.6947436522
 O       -15.4951941114        2.9505327619        8.6437271575
 C       -15.2646243480        3.5500409388        6.3179239923
 C       -14.0585200890        2.4839717141        6.3633301731
 C       -12.8772914940        2.7819409429        5.5727376795
 O       -12.8257585346        3.5467323627        4.6577313884
 C       -11.5270428079        1.8426377400        5.8539683920
 C       -10.8872146412        1.5065995114        4.3874551925
 O       -10.9568704627        0.3273144155        3.9513333240
 C       -10.3623007310        2.6334963184        3.4088627399
 C        -9.4422275466        1.9383202857        2.3117622294
 C        -9.1443221652        2.7562740387        0.9822983795
 O        -7.9303506779        3.0463956716        0.7117764490
 C       -10.2474251405        2.8924976255       -0.1826009696
 C        -9.5302943663        2.1890918800       -1.4673140124
 O        -9.2727801258        2.9352539475       -2.3608105479
 C        -9.1926845048        0.6455402422       -1.3212255701
 C        -7.7289351255        0.2878777603       -1.7158198427
 C        -7.2299280950        1.1082557843       -2.9093465492
 O        -6.6722173490        2.1724990367       -2.7197123095
 C        -7.1740966351        0.4133876695       -4.3407519683
 C        -8.1753214834        1.3580648861       -5.2258029204
 O        -9.1402330943        0.7270480667       -5.6038374682
 C        -7.8036905238        2.8903471663       -5.3905908657
 C        -7.6150139017        3.3117801094       -6.9160611984
 C        -8.5264724010        4.5974432618       -7.1947611654
 O        -9.6975804950        4.4433548409       -7.4836129242
 C        -7.9091809676        6.0210181261       -7.3168811364
 C        -7.4416588315        6.1661008219       -5.8269700700
 O        -6.3774648742        5.7852575617       -5.4919335958
 C        -8.4929521923        6.6871151987       -4.7176943219
 C        -7.6450852016        7.3896273688       -3.6602671470
 C        -6.9533893104        6.4423745411       -2.7588239920
 O        -7.5155041580        5.4521600266       -2.4277646850
 C        -5.5795613911        6.8214419989       -2.0473384632
 C        -5.8157279883        6.7837670529       -0.4992926024
 O        -6.5878809548        5.9878961002        0.0848714217
 C        -5.3381007844        8.0879801807        0.2484234391
 C        -4.7611032182        5.4682966988       -2.4687448616
 C        -4.8627240266        8.0029800307       -2.7735370804
 C        -6.5717479330        6.0775551450       -8.2012937494
 C        -9.0703451089        6.9842954351       -7.9806425784
 C        -5.6978228509        0.5570000440       -4.7857963722
 C        -7.5601946994       -1.0431493587       -4.3339551635
 C       -11.6030799056        2.1231617428        0.0021002631
 C       -10.4864716947        4.3765620637       -0.5959634824
 C       -10.4271794976        2.6108174498        6.7388325023
 C       -11.8795421433        0.6137475879        6.6626448667
 C       -17.0285543331        5.8277559636        7.4547921590
 C       -17.7375968352        4.0326927008        9.3391763656
 H       -20.0767025507        5.0843867219        6.2591448216
 H       -19.8430902714        4.7689758837        7.8562231425
 H       -20.2690484261        3.3206506874        6.6701078561
 H       -14.9342653749        4.5840233770        6.0484730728
 H       -15.9405165196        3.0331631088        5.6671950314
 H       -14.4192835258        1.4731334156        6.0761468978
 H       -13.7903972740        2.2631069744        7.3766835495
 H        -9.8139462781        3.4202153034        3.9605132036
 H       -11.3177045060        2.9926993155        3.0283276385
 H        -9.9193424226        1.0362448969        2.0018632851
 H        -8.4616032921        1.5081590151        2.5895617423
 H       -10.1048973162        0.1529877998       -1.6871737192
 H        -9.1703576547        0.4229586365       -0.2364298145
 H        -7.5082141634       -0.7498666130       -1.7544090851
 H        -7.1282752353        0.6147915943       -0.8107670743
 H        -6.9926835168        3.2276180355       -4.7527326112
 H        -8.6964458006        3.3601431764       -5.0655429080
 H        -7.9085305874        2.5558985321       -7.5964974620
 H        -6.4975986183        3.5994058872       -6.9804422336
 H        -8.9787407560        5.6302156577       -4.4857225927
 H        -9.2149181376        7.2848255282       -5.3615609516
 H        -8.2046356355        8.1941206492       -2.9830191017
 H        -6.9768179301        8.0000988164       -4.2973501082
 H        -4.4116611431        8.0279933098        0.7334647380
 H        -6.0606561411        8.1321103508        1.0546472256
 H        -5.1995876950        8.9523913723       -0.4862242436
 H        -4.2349880959        5.7184404393       -3.4177075143
 H        -5.3993302970        4.6423010776       -2.6056249472
 H        -4.0550757938        5.2249849036       -1.7453775688
 H        -3.8403552772        7.8989001643       -2.5947830981
 H        -5.1160932950        9.0704539634       -2.4964026422
 H        -4.9366761438        7.9959697147       -3.8783659013
 H        -5.7484950865        6.0473465248       -7.5181014180
 H        -6.6414870966        6.9457894284       -8.8217459394
 H        -6.3901834497        5.3186270734       -8.9350099657
 H        -9.2829266001        6.4917643618       -8.9068162370
 H        -8.5831991521        7.8923670877       -8.1953034126
 H        -9.9775627255        7.2188508501       -7.4050817078
 H        -5.0105672564        1.2203441982       -4.1354154178
 H        -5.5956753899        0.7113805807       -5.8405819647
 H        -5.3347126242       -0.4534494841       -4.6204208288
 H        -8.6494344352       -1.1829270728       -3.9765537441
 H        -6.8925452801       -1.5718188347       -3.5780420593
 H        -7.3391290479       -1.5904856738       -5.2552739307
 H       -11.5854825691        1.1077449633       -0.0324111285
 H       -12.2279200375        2.4383977863       -0.8178015635
 H       -11.9782400816        2.3273036825        0.9184027363
 H       -11.2508857792        4.7264857745        0.1034697515
 H       -10.9951296432        4.3546645126       -1.6053243879
 H        -9.6735965411        4.9902423887       -0.5732873437
 H        -9.4950517072        2.0101949663        6.8031916476
 H       -10.5758013737        2.7628587452        7.7402719348
 H       -10.1700304775        3.5978070538        6.1934192920
 H       -11.3995205668       -0.1708224061        6.1030073652
 H       -13.0355043735        0.3819891531        6.5912915259
 H       -11.4704266913        0.4213830219        7.5875677194
 H       -18.0439130160        6.2854405681        7.6939732652
 H       -16.8476814892        6.1507231655        6.4113187929
 H       -16.4959783926        6.2870879111        8.1860114571
 H       -17.3146211222        3.0615334892        9.6206543350
 H       -18.7591827439        4.1582875977        9.3098281937
 H       -17.4362788609        4.9655953817        9.8397070995
 Na       -6.7196361456        3.7450421948       -0.9927615860
