117

 C       -19.7274947947        4.4891735450        7.1439460527
 C       -18.2277217945        4.6110198508        6.7547987528
 O       -17.7264418872        4.5825920379        5.6372941152
 C       -17.2249358496        5.0568054206        7.8864412519
 C       -16.0937929920        4.0052263960        7.7972209995
 O       -16.2699760337        2.8893950658        8.2534257612
 C       -14.9123041810        4.3839412614        6.8777166904
 C       -14.2144638745        3.1191780192        6.2340207198
 C       -12.7692211416        3.3513114294        5.8363508647
 O       -12.4256127938        4.4638244539        5.5417512499
 C       -11.6512706075        1.9886103335        5.7070781896
 C       -11.6849778960        1.6373916300        4.2943788002
 O       -12.1292536735        0.6305477535        3.8464180121
 C       -10.7925109463        2.6656761006        3.2791284233
 C        -9.7787945519        1.8629185730        2.4670185721
 C        -9.2486461141        2.3739423352        1.0214388313
 O        -8.1180936855        2.6894001584        0.7903197195
 C       -10.1736771771        2.6959185505       -0.1189444536
 C        -9.4260019398        2.1767419922       -1.3987717899
 O        -9.0030698136        2.8720399251       -2.3943842603
 C        -9.1786217707        0.6964374323       -1.4085459385
 C        -7.6565864590        0.3802110063       -1.4749150313
 C        -6.8111719639        0.9600568601       -2.6776944146
 O        -6.1389203585        2.0305556969       -2.5544020043
 C        -6.6990435650        0.3441174955       -4.0619734309
 C        -7.7857385463        0.9963354468       -5.0758085377
 O        -8.7776632690        0.3966796940       -5.3769974611
 C        -7.7047098608        2.5303894809       -5.4524569654
 C        -8.2179620103        2.8078326190       -6.8689316976
 C        -8.7957067179        4.2676853904       -7.1944487627
 O        -9.9487853222        4.4289826274       -6.8624692061
 C        -7.8172951958        5.4158463247       -7.4407833263
 C        -7.3243275367        5.9805196913       -6.1469422490
 O        -6.2141534219        5.7351595576       -5.7005665861
 C        -8.2960340066        6.9921264749       -5.2701307866
 C        -7.7782646260        7.2835303400       -3.8920279478
 C        -6.9760755677        6.1717752694       -3.0956915222
 O        -7.4112953937        5.0474224405       -2.9572227870
 C        -5.5272441486        6.3441798512       -2.2646178373
 C        -6.0112838686        6.6281713446       -0.7463562163
 O        -6.1764111900        5.6738743370       -0.0472880914
 C        -6.0865031158        8.0359788227       -0.1660606947
 C        -4.6841988028        5.0302991614       -2.6016438490
 C        -4.7471449705        7.5745678791       -2.8637021165
 C        -6.5369262511        5.0656666202       -8.1985589308
 C        -8.7274943313        6.4261708952       -8.3006276988
 C        -5.3243190918        0.4815381484       -4.6145236041
 C        -7.0960535567       -1.1728629456       -4.0392766689
 C       -11.5287268069        2.0268176007       -0.0741842668
 C       -10.3849949769        4.1836352944       -0.4042814914
 C       -10.3546246392        2.5283525610        6.2355476043
 C       -12.2442202056        0.8374556783        6.5198016207
 C       -16.9522059252        6.6449450508        7.6865076698
 C       -17.8964919318        4.9071981977        9.3097544661
 H       -19.8751842446        5.2744370802        7.8896440030
 H       -19.7740063854        3.4681753657        7.4603572441
 H       -20.3635359022        4.4350543561        6.3070768849
 H       -14.2299968437        4.8608562907        7.5455045439
 H       -15.1463423505        5.1581131989        6.1256694330
 H       -14.7803068323        2.7032546561        5.4478942322
 H       -14.2361390391        2.4118531384        7.0642282456
 H       -10.4469811920        3.5465878332        3.8030966866
 H       -11.5175508962        3.0363559408        2.5597271249
 H       -10.2012562776        0.8387751938        2.1780580146
 H        -8.8912952052        1.7844775170        3.0973898156
 H        -9.7174337444        0.3365178056       -2.3543021838
 H        -9.6476192814        0.3078666336       -0.4623123757
 H        -7.4095750499       -0.6972717080       -1.5326873675
 H        -7.1468641985        0.8717896965       -0.6304034032
 H        -6.5739605775        2.6799444502       -5.4114204745
 H        -8.2311770077        3.1804454496       -4.7301190107
 H        -8.9903371789        2.0423039982       -7.1403686982
 H        -7.4327309001        2.6477146043       -7.5619056165
 H        -9.0800568738        6.3807495403       -5.3729913700
 H        -8.5282941725        7.7561713318       -5.9619409150
 H        -8.5400647723        7.5050394125       -3.1243548806
 H        -7.3172766517        8.2684166431       -3.9123571890
 H        -5.7097256260        8.7800908793       -0.8309945507
 H        -5.5698976028        7.9754204232        0.8531247071
 H        -7.1374721398        8.2694341426       -0.1951257679
 H        -3.6029046338        5.1649763318       -2.6412817283
 H        -4.9580391947        4.5023531000       -3.4082327205
 H        -4.8391184546        4.4975072294       -1.7106936765
 H        -3.6151771310        7.4028577971       -2.9437378281
 H        -4.8082024102        8.5563030210       -2.3359971953
 H        -4.9781471448        7.9325524530       -3.8404642519
 H        -5.9549679567        4.2841871688       -7.7044191551
 H        -5.8620261474        5.9715398334       -8.1901793897
 H        -6.8340301379        4.7223327237       -9.2894058056
 H        -9.6076792362        5.8842968854       -8.8115231372
 H        -8.0468784739        6.9366476114       -8.8516645203
 H        -9.3285684552        7.0908556010       -7.5689483749
 H        -4.8846913958        1.5743691350       -4.7156612222
 H        -5.3020337562       -0.1625964388       -5.5213464625
 H        -4.6185929143        0.1304344349       -3.8165508108
 H        -8.1781412859       -1.3281287512       -3.7711014914
 H        -6.2157412140       -1.7296746477       -3.5859830949
 H        -7.0634726391       -1.6182132185       -5.0464212279
 H       -11.4052835546        1.0163683341        0.1126218585
 H       -12.0911917125        2.1703516629       -1.0376422594
 H       -12.2675996786        2.4740807488        0.5829185187
 H       -11.3643890673        4.5674603459        0.1605949337
 H       -10.6769678856        4.3189581089       -1.4144948236
 H        -9.4989758590        4.6707203404       -0.0444269740
 H        -9.5778570960        2.0325393418        5.7058746459
 H       -10.1844817462        2.7429198053        7.3024731962
 H       -10.1338400965        3.4932747118        5.8132176436
 H       -11.7670903336        0.6547397382        7.5159146339
 H       -11.8539317966       -0.1755245476        6.1032135525
 H       -13.2708985855        0.9608710298        6.4597508116
 H       -17.8514439452        7.1288651452        7.9159086176
 H       -16.8518019419        6.8400895471        6.6051946204
 H       -16.0976423016        7.2151537980        8.1133310060
 H       -18.2277391492        5.8550494289        9.7646919256
 H       -17.2250681961        4.3553257082        9.9192251842
 H       -18.8017946735        4.2502634633        9.3028721923
 Na       -6.6876873020        3.6808845499       -0.9426096776
