117

 C       -19.8297479779        4.5201313483        6.9355921491
 C       -18.3343089175        4.9221590744        6.7290479817
 O       -17.9346886721        5.0162343718        5.6047563933
 C       -17.2180987223        5.3077310663        7.9769843831
 C       -16.1020722676        4.1537793871        7.6742618633
 O       -16.1824057982        3.0649991482        8.2159655374
 C       -14.8008298482        4.5016671442        6.8951892355
 C       -14.1583106137        3.2201271534        6.3858501072
 C       -12.6883736604        3.3727657740        5.8687052509
 O       -12.2415625829        4.4796610611        5.6930306520
 C       -11.7384278273        2.0862804526        5.6313269170
 C       -11.7801675968        1.8242850932        4.1508132814
 O       -12.5451332687        1.0251286223        3.6505656765
 C       -10.8941503881        2.8294544881        3.1186793261
 C        -9.8712897000        1.9069420320        2.3148674552
 C        -9.4049577953        2.3106621459        0.9336942166
 O        -8.1518967130        2.3576743362        0.7333228472
 C       -10.3147998304        2.5306140167       -0.1944568476
 C        -9.4305431866        2.0916171385       -1.4745602877
 O        -8.9739703375        2.8390161945       -2.2579835134
 C        -9.0672791088        0.6326196935       -1.5952086996
 C        -7.5884329412        0.3586097553       -1.3169724610
 C        -6.7671793954        0.9451106421       -2.5500149183
 O        -6.2443791088        2.0008924732       -2.4279120520
 C        -6.6729226201        0.1887216771       -3.9317895263
 C        -7.7266767563        0.8936273870       -4.9668682581
 O        -8.6693779583        0.1789089483       -5.1426874045
 C        -7.5871270859        2.3817854514       -5.3151619024
 C        -8.4782669903        2.7988252096       -6.6214912626
 C        -8.8145480319        4.2050167035       -7.0515052172
 O        -9.9417161679        4.5702424725       -6.7717583565
 C        -7.7858753597        5.3890903012       -7.4414625592
 C        -7.2744038192        6.0361157633       -6.0007947089
 O        -6.1731017383        5.7524476173       -5.5807466783
 C        -8.3025360694        6.9275017496       -5.2860514908
 C        -7.6150269580        7.3007218399       -3.9247572840
 C        -6.8663573690        6.1194292704       -3.1123480658
 O        -7.4413325131        5.0708856679       -2.8561187107
 C        -5.4130758778        6.3981598696       -2.4964255875
 C        -5.8845633383        6.6015280323       -1.0641540616
 O        -6.0318124160        5.5279084385       -0.4229026658
 C        -6.3852447601        7.9418230085       -0.3881088363
 C        -4.3966765365        5.0850418146       -2.6058554601
 C        -4.7291840457        7.6050397357       -3.0255824882
 C        -6.7099289721        4.6941162024       -8.2228734413
 C        -8.4631906073        6.3947717740       -8.4953816585
 C        -5.1552024599        0.4286279595       -4.3187648547
 C        -6.8976125773       -1.2218075578       -3.7247974195
 C       -11.6344284444        1.7991774266       -0.1058562314
 C       -10.6655145462        4.0644689972       -0.3357724093
 C       -10.4118383200        2.5373952372        6.2685982400
 C       -12.1950003419        0.8611377542        6.5615183594
 C       -16.6201201738        6.6699061581        7.7411233625
 C       -17.7883528018        5.0833571718        9.3761960027
 H       -20.2479959867        5.2867901614        7.5939126485
 H       -20.0277557864        3.4249443879        6.9507304132
 H       -20.2465353120        4.7039327847        5.9013784805
 H       -14.1111049448        5.1164408910        7.5809567467
 H       -14.8582143911        5.2500744099        6.1083353763
 H       -14.9276375797        2.7927087233        5.6582700411
 H       -14.0508774022        2.5546998688        7.2544231510
 H       -10.5032075939        3.6943414114        3.6800318920
 H       -11.6213389530        3.2863591121        2.4125742517
 H       -10.4161019329        1.0006236625        2.0903252647
 H        -8.9850051069        1.7603694074        2.9557952578
 H        -9.2732355597        0.3535727637       -2.5936928694
 H        -9.6463085018        0.0141528685       -0.9394935471
 H        -7.4980580172       -0.7372169214       -1.3732698812
 H        -7.2383144513        0.8218988831       -0.4075039451
 H        -6.5586819928        2.6507348169       -5.3792051750
 H        -8.0420934570        2.8905713505       -4.4301410833
 H        -9.4723671400        2.3638870239       -6.5918039330
 H        -8.0435714650        2.2420675416       -7.5127275803
 H        -9.2485587533        6.1844851933       -5.1136305435
 H        -8.6882413308        7.7031285674       -6.0358097746
 H        -8.4045761235        7.6142275740       -3.2541314238
 H        -7.1042054426        8.2577421351       -4.0237087979
 H        -6.0622665387        8.8799093697       -0.9212442376
 H        -5.9999523289        7.8351515585        0.5876822592
 H        -7.4842257634        7.9256249367       -0.4574111827
 H        -4.6937273963        4.5944438203       -3.5594231038
 H        -4.4914405616        4.1760902232       -1.9247944933
 H        -3.3039958086        5.4592500416       -2.6644122808
 H        -3.9084731737        7.8792907364       -2.4013977863
 H        -5.2751812292        8.4932723883       -3.1180884488
 H        -4.3367935043        7.5199185351       -4.0491963219
 H        -5.9476575888        4.2809841634       -7.4803113078
 H        -6.0772765864        5.3624795768       -8.8029754432
 H        -7.1432353250        3.8707923170       -8.7544607004
 H        -9.3248959410        5.8475836146       -8.7619907009
 H        -7.6927075936        6.4912339592       -9.3532571120
 H        -8.7682554304        7.3188708518       -8.1033106551
 H        -4.8650563168        1.4017023412       -4.1303775631
 H        -5.0044612716        0.1346521843       -5.3613029005
 H        -4.5018096406       -0.1848233532       -3.6838023489
 H        -7.9129280935       -1.4319857709       -3.8234927322
 H        -6.3594404233       -1.4725996573       -2.8486737751
 H        -6.4490443668       -1.7638572962       -4.5618675165
 H       -11.5162340444        0.6585787283       -0.2698838058
 H       -12.3792154378        2.1897682431       -0.7662468811
 H       -12.1852626556        2.0648042089        0.8356244534
 H       -11.1573639607        4.4246035873        0.4975069546
 H       -11.3780819921        4.0486982775       -1.1564995698
 H        -9.7520625502        4.6609281784       -0.5018128085
 H        -9.5278385059        2.0369443496        5.8971347539
 H       -10.4844061967        2.6683051896        7.3646739307
 H       -10.1415899311        3.5553598266        5.9521017439
 H       -12.8159936187        1.1292401070        7.4544308361
 H       -11.4362790442        0.5556752979        7.0851441257
 H       -12.6554675425        0.1571619430        5.8713293046
 H       -17.3432965158        7.4883285491        7.9750583524
 H       -16.0454607021        6.8308378880        6.8412329807
 H       -15.7842037556        6.8534382742        8.4726558754
 H       -17.8950476737        6.0962054636        9.8991653215
 H       -17.1660750886        4.4681929534       10.1379433220
 H       -18.7812019892        4.7010918102        9.2877502329
 Na       -6.9186946156        3.4959596215       -1.0620485886
