117

 C       -19.7544809435        4.6437065162        6.9707274866
 C       -18.2842353287        5.1611430567        6.7233062787
 O       -17.9191032190        5.3115146981        5.5721189375
 C       -17.2083497634        5.3154800326        7.9047718232
 C       -15.9783662031        4.1826222315        7.7230935260
 O       -16.2003724224        3.1057379320        8.2193743993
 C       -14.8235862148        4.4484776790        6.8186226237
 C       -14.0639694933        3.1388491451        6.4230843932
 C       -12.6440929841        3.4512209759        5.9142104573
 O       -12.2582180109        4.5946872572        5.7032756428
 C       -11.7103258639        2.2079202022        5.6959863076
 C       -11.8812867509        2.0262747030        4.1793331280
 O       -12.6180874640        1.2677073954        3.6150010758
 C       -10.9063388884        2.7749970416        3.1735669268
 C        -9.9881661150        1.7837594330        2.5226395994
 C        -9.4066934489        2.2282528740        1.0609332916
 O        -8.2426556188        2.4631962060        0.9225733635
 C       -10.4059965956        2.4000901038       -0.2616512310
 C        -9.5177276230        2.0137646149       -1.4893516201
 O        -9.0757430519        2.9559423188       -2.2586262026
 C        -9.2016585930        0.4815288573       -1.6290389360
 C        -7.6662079142        0.3342536253       -1.4229208941
 C        -6.7401492435        0.9362688298       -2.5302781032
 O        -6.1472271628        2.0363578329       -2.3422898753
 C        -6.5920141527        0.1127771593       -3.7998323254
 C        -7.7146208182        0.8790419861       -4.7981026300
 O        -8.6198600912        0.1867291443       -5.1507297700
 C        -7.5025316464        2.3408757800       -5.3084144831
 C        -8.4997294930        2.7107627121       -6.4085951061
 C        -8.8692678817        4.2691885438       -6.6415099941
 O       -10.0000543859        4.6453062301       -6.7282128057
 C        -7.7002445893        5.2259124107       -7.3544501699
 C        -7.1913321509        5.9538479587       -6.1214242005
 O        -6.1121845192        5.6763100599       -5.5695524039
 C        -8.2382084005        6.6971640360       -5.2143061466
 C        -7.4946815095        7.2548682072       -3.9826494380
 C        -6.8012896475        6.1598058699       -3.3067233081
 O        -7.4941830915        5.2046826058       -2.9644132451
 C        -5.4097580185        6.4083735779       -2.6808157405
 C        -5.8681164097        6.4549156114       -1.1085615720
 O        -6.0055612169        5.5096931265       -0.3355445936
 C        -6.3728120924        7.8112260592       -0.5723331816
 C        -4.3367916085        5.2752985099       -2.7133515371
 C        -4.7691510036        7.6921830158       -3.1612391176
 C        -6.5736321690        4.4076712247       -8.0814057419
 C        -8.4202591136        6.2649491668       -8.3306220057
 C        -5.1020213336        0.4440380638       -4.4390642909
 C        -6.8204776032       -1.3778640773       -3.7219662736
 C       -11.7030329846        1.6063391727       -0.2601835787
 C       -10.7166719789        3.9201499564       -0.3916363259
 C       -10.2512407560        2.5406220828        6.1306906225
 C       -12.2341926959        0.8569537845        6.2315589792
 C       -16.6610062717        6.7560039990        7.7795784072
 C       -17.8162936090        5.1661099537        9.2450427917
 H       -20.2276058450        5.3429062539        7.7046921494
 H       -19.4978323095        3.5740387905        7.2171241485
 H       -20.4159055363        4.4720797105        6.0973427611
 H       -14.0442937392        5.2025796314        7.1644725022
 H       -15.1181618723        5.0894079707        5.9546248350
 H       -14.6668010764        2.5490497070        5.6702961602
 H       -13.8726685505        2.5647068894        7.3493081531
 H       -10.3626552301        3.5271814785        3.7222516297
 H       -11.5051474558        3.3689504337        2.4543396824
 H       -10.5719626239        0.9104810160        2.2893514857
 H        -9.1871307644        1.6422008026        3.2439362904
 H        -9.4834644190        0.1859670333       -2.6115008814
 H        -9.7323990034       -0.1666020297       -0.9386484378
 H        -7.4069902353       -0.7945403305       -1.3259765529
 H        -7.4423137846        0.8983247532       -0.5710739333
 H        -6.5499121987        2.5908199127       -5.6561498309
 H        -7.7079449701        2.9152301770       -4.4182440336
 H        -9.5279810575        2.2364817035       -6.4411075057
 H        -8.0796262459        2.2916737997       -7.2971127560
 H        -9.1597966664        6.1615032561       -4.8171909315
 H        -8.7336860347        7.6281884788       -5.7903687781
 H        -8.3156542018        7.7495967110       -3.4648142060
 H        -6.9405589829        8.1966090176       -4.3187580326
 H        -5.9603170205        8.6112117085       -1.2107279713
 H        -6.1144890676        7.8728509417        0.5186722898
 H        -7.3985954011        7.7789575676       -0.7752432273
 H        -5.0523790289        4.3894898194       -2.8126545297
 H        -3.7916538723        5.0208258047       -1.8734355478
 H        -3.6510230187        5.3434892963       -3.6283910202
 H        -4.1404049672        8.2441138947       -2.4078549538
 H        -5.3892899452        8.4840424873       -3.4523044596
 H        -4.2062725668        7.5957794224       -4.0256532744
 H        -5.9605757062        3.8725622169       -7.4773845217
 H        -5.9125777364        5.0792660878       -8.5086634462
 H        -7.0979657401        3.7378229429       -8.7273014386
 H        -9.2973312141        5.7256111412       -8.7074680771
 H        -7.7594514129        6.4903859526       -9.0253610844
 H        -8.6896229186        7.1248748705       -7.7607454726
 H        -4.8738157472        1.4974777654       -4.3852939798
 H        -5.1150631758        0.1612482527       -5.4323026649
 H        -4.3565214448       -0.1258565267       -3.9826505350
 H        -7.8538186130       -1.5181668137       -3.6003494015
 H        -6.2029435174       -1.7702148598       -2.9049452865
 H        -6.6196517872       -1.7847860155       -4.7096705475
 H       -11.5888792073        0.5867404236       -0.2976968182
 H       -12.3802845915        1.8759124186       -1.0438741999
 H       -12.3012211533        1.9710493390        0.5905346631
 H       -10.9847523300        4.4232026986        0.6260522942
 H       -11.4753997437        3.9887162241       -1.0772897502
 H        -9.8191440596        4.4068891043       -0.7590531285
 H        -9.4114314108        1.8581345677        6.0463212840
 H       -10.3917723415        3.0552149180        7.1649371781
 H        -9.8706043149        3.3393677123        5.5646184216
 H       -13.1716260850        0.9884987361        6.8669513544
 H       -11.5899845217        0.4119242252        7.1109613815
 H       -12.3913304628        0.3022441026        5.3377457591
 H       -17.3120497241        7.4128713230        8.3038445339
 H       -16.2441153715        7.1618089266        6.8759331383
 H       -15.6642541080        6.8239248411        8.4147147110
 H       -17.9032674748        6.1874155842        9.6185075345
 H       -17.0657749852        4.8050879015       10.0403190581
 H       -18.8017561478        4.6905040866        9.3398002463
 Na       -7.1701707027        3.5428198070       -1.0177158928
