117

 C       -19.6002809164        4.7755659855        7.0166099768
 C       -18.1507958956        5.4691404018        6.6784431008
 O       -17.8072846620        5.8755909729        5.6091532566
 C       -17.1134694003        5.5066643160        7.8537614207
 C       -16.0444249122        4.3498248017        7.7058203004
 O       -16.2708196620        3.2710518304        8.2465217315
 C       -15.0167654391        4.4786458430        6.5671589924
 C       -14.0575782531        3.2843837740        6.5866305858
 C       -12.6640067165        3.5408516418        5.9227769511
 O       -12.2277515084        4.6472759365        5.8600026305
 C       -11.6570770848        2.2303191882        5.5502579255
 C       -11.9434731476        2.2946064531        3.9950961778
 O       -12.9665055796        1.8398298478        3.4842381642
 C       -10.8860839433        2.8687437031        3.0676878021
 C       -10.2330935936        1.5781772807        2.2693962275
 C        -9.5588691030        2.1460320787        1.0532846425
 O        -8.5332292293        2.8695848962        0.9604417914
 C       -10.4026401777        2.2165187803       -0.1864714421
 C        -9.5550095579        1.8697179387       -1.5083958651
 O        -9.3536249858        2.7290304390       -2.2732432200
 C        -9.1911181144        0.4283651121       -1.7993507267
 C        -7.6906932737        0.1765841204       -1.3749297786
 C        -6.7307721199        0.8857767676       -2.4516808676
 O        -6.1300702305        1.8873212842       -2.1827196800
 C        -6.4698220221        0.2501597469       -3.8899704544
 C        -7.5770633625        0.8464142969       -4.8174611294
 O        -8.5579079973        0.2080232895       -5.0684232854
 C        -7.5499219885        2.2702093836       -5.1946797214
 C        -8.7629700996        2.5173313028       -6.0413861667
 C        -8.8555333091        3.9403617595       -6.5548338077
 O        -9.9226859992        4.4657424011       -6.3371138529
 C        -7.7040845738        4.8177824286       -7.2090689930
 C        -7.1647728619        5.5777204289       -5.8952391739
 O        -5.9894575683        5.5716540134       -5.6129509777
 C        -8.1787388053        6.5445564375       -5.2794949313
 C        -7.3641301569        7.2926715136       -4.1016038841
 C        -6.7068761329        6.2792813049       -3.2286392028
 O        -7.2951174635        5.2045420345       -3.1231398988
 C        -5.3988182110        6.4299989672       -2.5990260553
 C        -5.7329729032        6.5982242665       -1.1704473795
 O        -5.9085155763        5.5456550851       -0.5783367016
 C        -6.3790740144        7.9169733935       -0.4947717487
 C        -4.5016407372        5.1642822974       -2.9976200201
 C        -4.6044351743        7.7824818178       -3.0385696813
 C        -6.4844716000        4.0086743765       -7.8548571846
 C        -8.2463494330        5.7920533785       -8.3109423974
 C        -5.1035894255        0.4820654308       -4.5376170073
 C        -6.6866625978       -1.3013314450       -3.8773910413
 C       -11.6880898732        1.3560781249       -0.0788704795
 C       -10.9099314113        3.7123622861       -0.2828938528
 C       -10.2003211792        2.4615751022        5.9943735360
 C       -12.0936309716        0.8741063451        6.1593413278
 C       -16.4061282149        6.8070341624        7.7312090202
 C       -17.7195984702        5.2257234999        9.1528177738
 H       -20.2310947507        5.4779467662        7.4860985016
 H       -19.4137003894        3.8059881405        7.4143593750
 H       -20.1158892258        4.6192297318        6.0743872333
 H       -14.3779368156        5.2921017305        6.4094438465
 H       -15.6245300017        4.6650387998        5.7151748003
 H       -14.4376875757        2.3331983796        6.3788667145
 H       -13.7122700812        3.3249002820        7.6123032048
 H       -10.1690624471        3.6378343783        3.4362135967
 H       -11.5567778926        3.3227577102        2.3469724357
 H       -11.1602258266        1.0401348820        1.9782960136
 H        -9.5477903227        1.0272927139        2.9397306958
 H        -9.3035817053        0.1472979175       -2.9034810560
 H        -9.8071222885       -0.3190640402       -1.2324125782
 H        -7.5582760533       -0.8630567715       -1.3024821271
 H        -7.5175117670        0.7382144238       -0.3794838008
 H        -6.5825859180        2.5444796154       -5.7369476938
 H        -7.5116846628        2.8580899967       -4.2395528927
 H        -9.7027780552        2.3994481873       -5.6019117498
 H        -8.7427168583        1.8147763372       -6.9206410220
 H        -8.9930127309        6.0350284446       -4.7476529537
 H        -8.6823550997        7.1369946932       -5.9518756504
 H        -8.0272205366        8.0524793980       -3.6002934232
 H        -6.6642811682        7.8909448609       -4.5952936199
 H        -5.6679163966        8.7607432383       -0.5425993184
 H        -6.5552722195        7.6112743902        0.4884774491
 H        -7.3463885910        8.0917820786       -1.0819478783
 H        -3.7844134331        4.9842687637       -2.2942179501
 H        -3.9095679270        5.4597388508       -3.8893068057
 H        -5.1031969176        4.2962331017       -3.2122269018
 H        -3.6267719038        7.9095598638       -2.6410772210
 H        -5.0990238536        8.7102339237       -2.6339594028
 H        -4.5356686649        8.0266146216       -4.1685743437
 H        -6.1846537139        3.0613763081       -7.2486352563
 H        -5.5739241209        4.6362671580       -7.8084063340
 H        -6.9059331402        3.6560160042       -8.7678903611
 H        -8.3142474202        5.1580962678       -9.1849790742
 H        -7.3564526852        6.5766282026       -8.4844035165
 H        -9.1112539482        6.2779728836       -7.8623570988
 H        -4.9280742706        1.5636120543       -4.5989728690
 H        -5.1189519140        0.0959170345       -5.6247056677
 H        -4.3066614647       -0.1863321167       -4.0501373519
 H        -7.6491210169       -1.4876571676       -3.2993481474
 H        -5.8705819852       -1.7865918307       -3.2927496205
 H        -6.8805883226       -1.5879508611       -4.9544854596
 H       -11.5376699176        0.2849345316        0.2642498344
 H       -12.0891461372        1.1859254107       -1.0545530073
 H       -12.4614410191        1.8327515010        0.5132127400
 H       -11.5467752588        3.8319597115        0.5172862640
 H       -11.4004596389        3.8043430297       -1.3268640516
 H       -10.0919403852        4.4876149048       -0.2187525752
 H        -9.4834437925        1.6812606616        5.7285239386
 H       -10.1683854046        2.5034156789        7.0504667525
 H        -9.7238726761        3.3518485642        5.4946293357
 H       -13.1446001397        0.7837163695        5.8367791910
 H       -12.1990188441        1.0193465712        7.1242903155
 H       -11.4122916673        0.0310429961        5.8024130714
 H       -17.1361805212        7.5778304407        8.0057328442
 H       -15.9099846205        7.0338620831        6.8097008470
 H       -15.6351965493        6.9876275136        8.3834015540
 H       -18.6986824634        5.5871674369        9.4712430990
 H       -17.1831084656        5.7550657241        9.9403830236
 H       -17.7416047101        4.1606478494        9.1809537210
 Na       -7.4961681678        3.8226996123       -1.0111020229
