117

 C       -19.4119242619        4.9068624108        6.7914738217
 C       -18.1179483311        5.7146897292        6.6277364538
 O       -17.7563474690        6.3106089878        5.6420353395
 C       -17.0470424733        5.6261018475        7.8057798222
 C       -16.0242860212        4.3987544305        7.6194873273
 O       -16.1671610218        3.3466906468        8.1769880402
 C       -15.0159629982        4.4513824959        6.4336574613
 C       -14.0211311740        3.3262647387        6.6532418822
 C       -12.6105860101        3.5419953592        6.0954609516
 O       -12.1097053338        4.6446810184        5.9694939047
 C       -11.8313773540        2.3386970187        5.5745012747
 C       -12.1129425493        2.4811440881        4.0230228318
 O       -13.2004793458        2.2357058283        3.5584042064
 C       -10.8874230545        2.8694741592        2.9821197334
 C        -9.9577393501        1.7304155211        2.3911371497
 C        -9.6158158872        2.2808539114        0.9023156157
 O        -8.6302256760        2.9399792176        0.6801845663
 C       -10.6274763875        2.1595645053       -0.3396092802
 C        -9.6228714296        1.7322486989       -1.5064254911
 O        -9.2266649360        2.5894245288       -2.3455377451
 C        -9.1476541326        0.3193540935       -1.7340918535
 C        -7.7052642964        0.0801333950       -1.3747038413
 C        -6.7868631329        0.8087789995       -2.3046498899
 O        -6.3164368401        1.9409235890       -2.2236715126
 C        -6.4040629757        0.2105208799       -3.7155238499
 C        -7.6007063502        0.5852244555       -4.6395755495
 O        -8.5535231303       -0.1540462464       -4.8620400251
 C        -7.8380419956        2.1261365082       -4.9374282116
 C        -8.8313748361        2.4141825184       -6.1340066663
 C        -8.8979747003        3.9268127771       -6.5317970449
 O        -9.9007029423        4.5455374285       -6.3170661536
 C        -7.7049024749        4.5839018786       -7.2468913195
 C        -7.1650537061        5.4669089759       -6.0759855532
 O        -6.0191593472        5.3711578449       -5.6431157065
 C        -8.0106649838        6.5253458099       -5.4824814312
 C        -7.3783413525        7.3379639671       -4.3456527580
 C        -6.8000238035        6.3556737126       -3.2646665676
 O        -7.3307925116        5.3214131449       -2.9751999927
 C        -5.2401663636        6.5479517595       -2.4282249868
 C        -5.7836927235        6.5078965343       -0.9930026542
 O        -5.8819959577        5.4317128360       -0.4422846379
 C        -5.9695623318        7.9093004076       -0.3503045055
 C        -4.3410985465        5.2901717220       -2.7299261567
 C        -4.5723455161        7.6603056716       -3.0231144596
 C        -6.6462056498        3.5800428151       -7.6412848018
 C        -8.3115458983        5.4624115003       -8.4727476908
 C        -5.0783041189        0.6931052592       -4.1893673914
 C        -6.4330323015       -1.3957774671       -3.8058451815
 C       -11.6958776641        1.0371022484       -0.2468546550
 C       -11.4015277152        3.5963120347       -0.7809218332
 C       -10.2639528077        2.6552971790        5.8459555999
 C       -12.3664946258        0.9115376611        6.1363531609
 C       -16.2412839221        6.9307320560        7.8647731311
 C       -17.6139334868        5.6123673636        9.2488678051
 H       -20.2605432955        5.6023895432        6.9653983991
 H       -19.2085020559        3.9956851268        7.3670839526
 H       -19.7594957473        4.6437911038        5.7855698345
 H       -14.5062098519        5.4411139638        6.2285578411
 H       -15.4752071130        4.4233955873        5.4098968047
 H       -14.4505646297        2.4151883305        6.1449325406
 H       -13.9244659236        3.1186623250        7.7419558446
 H       -10.1773281879        3.6323640803        3.3452342989
 H       -11.4254907217        3.3037594187        2.0905882195
 H       -10.5990254465        0.8570669902        2.3540432142
 H        -9.0605525726        1.6021817716        2.9747328326
 H        -9.2419959081        0.0299634390       -2.7380522956
 H        -9.6795253042       -0.4050717296       -1.1689792680
 H        -7.4784316603       -1.0217068775       -1.6025029569
 H        -7.5561859854        0.2247628178       -0.3280780561
 H        -6.8245519122        2.3539867859       -5.2389532222
 H        -8.0070360470        2.7587474803       -4.0773723442
 H        -9.9300420648        2.0863653067       -6.0171233630
 H        -8.4605670329        1.9773242009       -7.0570928852
 H        -9.1089824587        6.4750708158       -5.2583287486
 H        -8.0137964232        7.3778066740       -6.3280803566
 H        -8.0409774262        7.9721795227       -3.7593394084
 H        -6.7525348038        8.0178654629       -4.9819249253
 H        -5.0818475574        8.1011705200        0.2310626938
 H        -6.9418803623        7.9055828296        0.2743289097
 H        -6.1390701305        8.5335001874       -1.1890633481
 H        -3.4869144747        5.4893695170       -3.5363575199
 H        -4.8399567547        4.3478976081       -3.1009344709
 H        -3.8310755601        5.1327795102       -1.7381527787
 H        -3.5290141976        7.7687588813       -2.6522486921
 H        -4.9753631943        8.6525595089       -2.8758635754
 H        -4.4668578293        7.5313671665       -4.0415483069
 H        -6.3905089138        2.9212764650       -6.8534314209
 H        -5.7719211615        4.2526169185       -7.7099964090
 H        -7.0005406833        3.0213296149       -8.5395791985
 H        -7.7398618964        5.0794723813       -9.2845008773
 H        -8.1773621461        6.4769301265       -8.3654823508
 H        -9.3600383373        5.2471434193       -8.4083669065
 H        -5.0605737696        1.7845043230       -3.9784750963
 H        -4.9240775330        0.5598384002       -5.2252277969
 H        -4.3485785373        0.1006343036       -3.7108850229
 H        -7.3552484444       -1.8643644626       -3.5718528407
 H        -5.7721534186       -1.7086166848       -3.0365237868
 H        -6.0784368400       -1.5705582098       -4.7559297979
 H       -11.3242152981        0.0201447229       -0.4447709015
 H       -12.5450987101        1.1120289312       -1.0432462543
 H       -12.1304426767        0.9814672527        0.7618382823
 H       -12.3021213971        3.7046804134       -0.1308730533
 H       -11.4481179660        3.5975375646       -1.8514691265
 H       -10.7421845428        4.3889928174       -0.6437899169
 H        -9.6416792670        2.0920413452        5.1358994182
 H        -9.8943706880        2.1178267189        6.7270467900
 H        -9.9699600381        3.6850757962        5.7546828273
 H       -12.8654617036        0.3087104383        5.4223758270
 H       -12.9033967282        0.9276281028        7.2148947535
 H       -11.3666760888        0.5491638524        6.4792570347
 H       -16.6035261592        7.9097500698        8.0793771932
 H       -15.6721457121        7.0736029500        6.8997911776
 H       -15.3503497540        6.8041785230        8.5301330543
 H       -18.6383990221        5.9023162365        9.3993396463
 H       -17.2601917771        6.3686934045        9.8902447462
 H       -17.6548192147        4.5587077983        9.6097652658
 Na       -7.4727569397        3.8585706721       -1.2035598797
