117

 C       -19.0980497944        5.0483696073        6.4704962142
 C       -17.9238974716        6.0315810130        6.5052117882
 O       -17.6622182417        6.8234620759        5.6479343457
 C       -16.8166941361        6.0307199362        7.8615720774
 C       -15.9437005555        4.6353124890        7.6689519088
 O       -16.3860665785        3.6554261614        8.1801706674
 C       -14.7806535716        4.6198739979        6.5770838953
 C       -14.1105791446        3.2695432879        6.3493950301
 C       -12.6147021972        3.5730905856        6.1938779463
 O       -12.0767327289        4.6722506408        6.2880033763
 C       -11.7914355995        2.5077206323        5.3671017835
 C       -12.2072477350        2.7134527996        3.8783630172
 O       -13.2813222691        2.2759930623        3.4891935858
 C       -11.3122178808        3.3452698912        2.8137291314
 C       -10.3631105498        2.3246398605        2.2162961771
 C        -9.9567378961        2.4608209210        0.7423270530
 O        -8.8762725394        3.0095881945        0.3764509006
 C       -10.7775974561        1.9653380647       -0.3973550136
 C        -9.7524328769        1.4072630383       -1.4529674714
 O        -9.2456441536        2.1838514415       -2.2031127338
 C        -9.2565172109       -0.0098065420       -1.5835539575
 C        -7.7616121863        0.0281900795       -1.2405469695
 C        -6.8540305600        0.8493056132       -2.1972586069
 O        -6.4140097084        1.9640928593       -1.9724791438
 C        -6.5045818898        0.1365272286       -3.5828082436
 C        -7.6615174620        0.3154249579       -4.5401378128
 O        -8.3573811068       -0.6463838867       -4.7898188382
 C        -7.9502283559        1.7963108105       -4.9410599529
 C        -8.9000872773        2.0957815042       -6.2153006572
 C        -8.9433114617        3.5288999244       -6.6281684610
 O        -9.8870193266        4.1864494799       -6.2127852067
 C        -7.7276959121        4.3523108061       -7.2469418226
 C        -7.0536727558        5.2378061599       -6.1334101204
 O        -5.9374204218        4.9327961984       -5.6756267626
 C        -7.6559526556        6.4878987538       -5.7293238454
 C        -6.8567414098        7.1963858879       -4.6183940318
 C        -6.7282350361        6.3968920206       -3.2838202002
 O        -7.4416149167        5.4523626074       -2.9996484333
 C        -5.4548399852        6.5272478464       -2.4088591570
 C        -5.6728033645        6.4947437379       -0.7593672074
 O        -6.3992877030        5.6528755545       -0.2725966989
 C        -5.2804809308        7.7683845623        0.0211353773
 C        -4.6582351786        5.2157077894       -2.7023031730
 C        -4.5587016338        7.7452945450       -2.7836057970
 C        -6.6262331681        3.4277801597       -7.8541830282
 C        -8.3429374676        5.2272929984       -8.4291859833
 C        -5.2773826180        0.9789194791       -4.1896309663
 C        -6.0349996581       -1.2338338530       -3.3865344586
 C       -11.7700867682        0.8871202001        0.0500093044
 C       -11.6291156412        3.1819835749       -1.0837109114
 C       -10.2558578835        2.6500109449        5.7714983471
 C       -12.2378796709        1.0494332499        5.7870877458
 C       -15.9573275450        7.2424652428        7.9708333762
 C       -17.5577467854        6.0506000290        9.1620625957
 H       -19.8259233486        5.4749212462        7.1629813256
 H       -18.6847091212        4.1005741389        6.7858749017
 H       -19.6941030991        4.9729090677        5.6048957219
 H       -14.0477636391        5.3980157211        6.9050203104
 H       -15.1433245380        5.0243186427        5.6494541824
 H       -14.5097118732        2.7187651019        5.4673291999
 H       -14.4250543290        2.6941933370        7.1667012325
 H       -10.7177503743        4.2448021202        2.9131986853
 H       -12.0203366607        3.4593209495        1.9458083713
 H       -10.8623474996        1.3527507257        2.3825980254
 H        -9.3968066633        2.2107827792        2.8233526568
 H        -9.2829944370       -0.4518069393       -2.6064181950
 H        -9.7150187616       -0.7723207855       -0.8647306381
 H        -7.3943120595       -1.0613410354       -1.3112334345
 H        -7.6852939766        0.1371942800       -0.1974034241
 H        -7.0068142956        2.3125259068       -5.0126251074
 H        -8.3473385325        2.1859997199       -3.9178990025
 H        -9.9624679660        1.8065025730       -6.0589110682
 H        -8.5840816867        1.3954232683       -6.9878738114
 H        -8.6614182588        6.7296394509       -5.4357592746
 H        -7.5169599537        7.2578972882       -6.5532602564
 H        -7.1596947282        8.1781876066       -4.4859103243
 H        -5.9397228684        7.2028424050       -5.2346903884
 H        -4.7604729888        7.3363323888        0.8968933636
 H        -6.2444965513        8.2991245731        0.2391409132
 H        -4.7606518391        8.4441471467       -0.5531622141
 H        -5.2302074214        4.3480570224       -2.4409211697
 H        -3.8797955639        5.1620598077       -2.0184670207
 H        -4.3372731340        5.1359791691       -3.7435985880
 H        -3.4298004897        7.8421322319       -2.4892780757
 H        -5.0624008109        8.7202505705       -2.7586007359
 H        -4.4030754461        7.5924703649       -3.8525811551
 H        -6.1218240318        3.0725142313       -6.9789773232
 H        -6.1083052877        4.0344720349       -8.6682709478
 H        -7.1036925459        2.5602440887       -8.4715458636
 H        -7.4471064797        5.4170726447       -9.1126220909
 H        -8.7636461272        6.1169392344       -8.0595796312
 H        -9.1804468957        4.5053745159       -8.8156139138
 H        -5.5659355635        2.0945310698       -4.3150970080
 H        -5.1154640545        0.6468983484       -5.2355389794
 H        -4.3310399171        0.9224612462       -3.5899110771
 H        -6.9160239403       -1.8594282830       -3.2249221456
 H        -5.4282079684       -1.3348553243       -2.4121844862
 H        -5.4472199853       -1.3905387360       -4.3063449239
 H       -11.5057669374        0.2578077500        0.8473996090
 H       -12.0724172933        0.2948475614       -0.8810425973
 H       -12.6564005304        1.3599566126        0.4772020564
 H       -12.0182335319        3.8410797536       -0.2259173762
 H       -12.3622703313        2.7660352313       -1.6907191610
 H       -10.9999721627        3.6738648781       -1.7930912054
 H        -9.6792491073        1.7222438106        5.8040331351
 H       -10.1126658840        2.9432692593        6.8731249077
 H        -9.8381773512        3.4088079876        5.1952846373
 H       -13.2543405922        0.9370464777        5.8165023091
 H       -11.5497388940        0.8925122709        6.6858007566
 H       -11.8612682804        0.2741795666        5.2321788638
 H       -16.3747278447        7.9933801464        8.5417404013
 H       -15.7076374620        7.7815753208        7.1250692642
 H       -15.0069663746        7.0487878617        8.5392712751
 H       -18.0147226198        7.0216203017        9.3253779335
 H       -17.0096872039        5.8975523443       10.1432266938
 H       -18.4394269069        5.4071508324        9.2315388687
 Na       -7.2601222948        3.9298506021       -1.2868573056
