117

 C       -18.8392159702        5.1634479191        6.4919004711
 C       -17.7165827603        6.1381689551        6.5358562351
 O       -17.6269993643        6.9799672426        5.6365082633
 C       -16.8385762635        6.1171557611        7.8550618641
 C       -16.0984500528        4.7201813045        7.5818231256
 O       -16.3178415548        3.6687647641        8.1328999198
 C       -14.9037238271        4.8688964260        6.7374144173
 C       -14.1352216051        3.5663522297        6.4400991138
 C       -12.6628061172        3.6354920161        6.0192004592
 O       -12.0565644652        4.5568995742        6.4837004302
 C       -11.7886110951        2.4334630548        5.3073574731
 C       -12.2059083825        2.6492443307        3.7743211241
 O       -13.2912508175        2.2402528305        3.4045221643
 C       -11.3481303425        3.5331894011        2.8692954771
 C       -10.3723752504        2.4767690473        2.2686551976
 C       -10.0070960152        2.6138027148        0.7777818821
 O        -8.9813797198        3.1757541371        0.5838683038
 C       -10.9175628880        1.9022496388       -0.4266409399
 C        -9.7901852883        1.3878422566       -1.4476203150
 O        -9.2769095128        2.1541016350       -2.2950334458
 C        -9.2636316537       -0.0446848101       -1.4381887498
 C        -7.7022599562        0.0253949499       -1.2454269394
 C        -6.8553342326        0.8619841235       -2.2431433191
 O        -6.3469818505        1.8851437152       -1.7325096664
 C        -6.4593633399        0.1974924876       -3.5696962404
 C        -7.7253696903        0.3083024906       -4.5724671428
 O        -8.2798009892       -0.6924706494       -4.8694334006
 C        -7.9536307956        1.7200919551       -5.0769441184
 C        -8.8277124195        1.8264796237       -6.3532511772
 C        -8.8628613246        3.4322924980       -6.4569951476
 O        -9.8284084324        4.1750667949       -6.2158666403
 C        -7.7248693458        4.1790789469       -7.2342024599
 C        -6.9846446399        5.0931163193       -6.2357234677
 O        -5.9888393335        4.6134548636       -5.7139940787
 C        -7.6885096202        6.3708622924       -5.6856671524
 C        -6.7259452100        7.2060884754       -4.6201649957
 C        -6.6662829253        6.3781915990       -3.3270807190
 O        -7.5260541117        5.5520244156       -3.1167655134
 C        -5.4236498352        6.5731295293       -2.3727873479
 C        -5.8532322862        6.6731901376       -0.7981268400
 O        -6.4832075840        5.8154159092       -0.2579968959
 C        -5.1661492196        7.5943685337        0.1544554445
 C        -4.7715819364        5.1792999363       -2.7136852921
 C        -4.3370862530        7.7572964351       -2.6882463612
 C        -6.6231033810        3.2221945590       -7.9328134542
 C        -8.4238378676        5.1925192639       -8.2923592711
 C        -5.1849905203        1.0132280823       -4.1289200099
 C        -6.0157222844       -1.3175085028       -3.4188078875
 C       -11.8419575047        0.7468923710        0.0365008031
 C       -11.6880670660        3.0205884914       -1.0895548930
 C       -10.3078294718        2.8205137768        5.4437201242
 C       -12.2299572839        0.9823168951        5.7412335675
 C       -15.8321500283        7.3059916392        7.8250741644
 C       -17.5639693209        6.0471315892        9.1666590519
 H       -19.6673184570        5.3856947556        7.2104619045
 H       -18.6362369205        4.1370839966        6.3465827608
 H       -19.3022019776        5.5156319911        5.5962138182
 H       -14.3234670754        5.5889179544        7.3576372481
 H       -15.1759137718        5.3928939664        5.7852713311
 H       -14.7722705858        2.9941695167        5.7471522671
 H       -14.3128597922        2.9997143997        7.3412036617
 H       -10.6775493409        4.3639664936        3.1739281160
 H       -11.9203404005        3.8726104405        2.0034403536
 H       -10.6707681309        1.4432011389        2.5352238826
 H        -9.4012481825        2.5643240354        2.7841631491
 H        -9.4177539176       -0.5247934489       -2.3971026378
 H        -9.7038109460       -0.6647097218       -0.6530302802
 H        -7.2631061454       -0.9544061192       -0.9694091547
 H        -7.5987831120        0.4396289116       -0.2488876673
 H        -6.9075109849        2.0798514616       -5.2352404277
 H        -8.3128397555        2.3740276843       -4.2754834904
 H        -9.8830318476        1.5297205836       -6.0411756013
 H        -8.5390362034        1.1335777167       -7.1727612268
 H        -8.6056110220        6.3447249661       -5.0023077990
 H        -8.0730759358        7.2068428010       -6.3828832862
 H        -7.1450585500        8.1510389503       -4.3377027166
 H        -5.8729170498        7.3340000425       -5.2209278730
 H        -4.9087943642        6.9501662594        0.9582978705
 H        -5.9077739016        8.4169829914        0.3244712415
 H        -4.3492333325        8.1585613322       -0.3753823398
 H        -4.7356379646        4.3803275491       -1.9320552628
 H        -3.5957540583        5.3798235622       -2.8293270694
 H        -5.1956158421        4.8135118844       -3.6114801701
 H        -3.3436150329        7.6257935154       -2.2814323242
 H        -4.7825618857        8.7773065039       -2.4175493637
 H        -4.0843838553        7.8615676219       -3.7646192861
 H        -6.2630324691        2.5359865212       -7.1019915985
 H        -5.9709912949        3.9936034436       -8.3992671500
 H        -6.9630354593        2.7088288196       -8.8299383452
 H        -7.7429509371        5.9774084151       -8.5223979661
 H        -9.3512477318        5.5451488695       -7.7365812405
 H        -8.7387166236        4.5199083510       -9.0757321297
 H        -5.1844673626        2.1593636002       -4.1077513811
 H        -5.2009692550        0.7502924535       -5.2344328023
 H        -4.2137481608        0.6414664777       -3.6614122880
 H        -7.0407053649       -1.7057474261       -3.1519949659
 H        -5.3550893421       -1.5834614941       -2.5795905151
 H        -5.6748611945       -1.5823621717       -4.3939534552
 H       -11.2657056502        0.1186568357        0.8196327474
 H       -12.2399568722        0.1211341882       -0.8488352089
 H       -12.6797217803        1.0751675136        0.6741663464
 H       -11.9324286335        3.7137999141       -0.3332976306
 H       -12.6187677228        2.6708387086       -1.6927422823
 H       -11.0190334918        3.4125832941       -1.8055762993
 H        -9.5761487098        2.0145960507        5.3014136435
 H       -10.0642529702        3.1793272535        6.3821851427
 H       -10.1910682766        3.7431332873        4.8003715564
 H       -13.2719573484        0.9170638818        5.6235872368
 H       -11.7004133694        0.6241504772        6.5407925746
 H       -11.8472398930        0.2088598234        4.9449248820
 H       -16.2177344078        8.2871835999        8.0843806143
 H       -15.3985301347        7.5776146778        6.8592708580
 H       -15.0554556142        7.1514021010        8.4931757382
 H       -18.0546117378        7.0267108880        9.4478153649
 H       -16.9531051086        5.7745435922        9.9945713598
 H       -18.4394053536        5.3340219692        9.3038980592
 Na       -7.4443538514        3.9394836638       -1.2413378692
