117

 C       -18.3780279617        6.0478450235        5.9088800378
 C       -17.4555307063        7.0696067474        6.3069278232
 O       -17.2237847898        8.1346235985        5.7349063684
 C       -16.6729063510        6.7562721884        7.8105226066
 C       -15.8111793611        5.4424718874        7.4712675473
 O       -16.1277474610        4.3626348158        7.8599211749
 C       -14.3228595829        5.5492569058        6.7785318247
 C       -14.0079665773        4.2189268469        5.9457241252
 C       -12.5130692092        3.7765282047        6.0852706936
 O       -11.8192343506        4.3590433311        6.8947474008
 C       -12.0057030729        2.6482534458        5.3074727624
 C       -12.5779631448        2.8107630993        3.8920429877
 O       -13.7469310433        2.5274076054        3.7365529119
 C       -11.8003475864        3.5445723116        2.6633046553
 C       -10.4973418861        2.8517542458        2.0553015334
 C       -10.4160087911        3.0541815634        0.4524943594
 O        -9.8569994468        4.0345586072        0.0035159010
 C       -10.9425884171        1.9869487474       -0.4447396588
 C        -9.7310844928        1.4712633459       -1.3577527218
 O        -9.3988835305        2.1175065109       -2.3053487039
 C        -8.9536537525        0.2431816860       -1.1696455900
 C        -7.5345091512        0.4557771920       -0.7390682254
 C        -6.7431611338        0.8976687800       -1.9637313862
 O        -6.6191206413        2.1319570289       -2.0583428845
 C        -6.2517813210       -0.0090789083       -3.1091482055
 C        -7.2074651122        0.1048216422       -4.3587309622
 O        -7.9515579676       -0.8540285662       -4.4598422479
 C        -7.2731360040        1.3955842298       -5.1434026480
 C        -8.6026676934        1.4013352972       -5.9024811544
 C        -8.8790784924        2.8690422809       -6.6294888695
 O        -9.9781131058        3.3542964260       -6.4156012822
 C        -7.8520970200        3.7387089234       -7.4702724878
 C        -6.7935001799        4.3751813601       -6.5819777091
 O        -5.7090354231        3.9336567752       -6.2903526598
 C        -7.1503627841        6.0313981589       -6.0061626327
 C        -6.3072592029        6.4933647312       -4.7818335064
 C        -6.6665032744        6.1044078667       -3.3650224916
 O        -7.7091496051        5.5230001056       -3.1453769576
 C        -5.4426444866        6.0575130633       -2.2198539186
 C        -5.9606950830        6.0714310974       -0.6775503856
 O        -6.7660461568        5.2354384862       -0.3107263151
 C        -5.4221918645        7.1270663156        0.2749527084
 C        -4.8253427727        4.6828671581       -2.3913261422
 C        -4.3682201999        7.3403037392       -2.4276612751
 C        -7.0999886454        2.7035120883       -8.3434153819
 C        -8.5660070294        4.8020654300       -8.4166005282
 C        -4.7622302873        0.5688700527       -3.4213990422
 C        -6.0445612044       -1.5179039825       -2.6738416118
 C       -11.5829946134        0.8359975997        0.4089727464
 C       -12.1263199864        2.5823292504       -1.3610588481
 C       -10.4776578495        2.5564840156        5.3734130228
 C       -12.7029617347        1.4260149594        5.8821242808
 C       -15.8134861886        7.9588429506        8.0803480610
 C       -17.5766839711        6.5625064427        9.0304518520
 H       -18.8457499655        5.5193643504        6.7676390939
 H       -17.7994658979        5.1517709628        5.5953657783
 H       -18.9479367899        6.4217235450        5.0450434539
 H       -13.6863934485        5.5163206852        7.6982509092
 H       -14.2500094116        6.3721916336        6.1036688903
 H       -14.3993820228        4.4699684298        4.9010607055
 H       -14.7548124497        3.4579842400        6.1539137427
 H       -11.7156806682        4.6232272287        2.8644589813
 H       -12.5518812677        3.5125116752        1.8643156506
 H       -10.5160840832        1.7830958654        2.3041250884
 H        -9.7319003044        3.3399694133        2.6670172413
 H        -8.9760475977       -0.1759864542       -2.1846730210
 H        -9.4608973231       -0.3834346035       -0.3683008385
 H        -7.1370840692       -0.5189423452       -0.2518676124
 H        -7.5217087006        1.2720925166       -0.0054516275
 H        -6.4463564651        1.4846614243       -5.8072531864
 H        -7.1747594588        2.2374115405       -4.4379084873
 H        -9.4120378661        1.4480063521       -5.1849685093
 H        -8.6843160045        0.5323937166       -6.4841402496
 H        -8.2134528172        6.2836248130       -5.8028643429
 H        -6.8610798658        6.5487544293       -6.9280781643
 H        -6.2109621351        7.6178647361       -4.8013052156
 H        -5.2857295017        5.9590310029       -4.8788348982
 H        -5.5968630091        8.0559538664       -0.1445620317
 H        -4.3949950325        6.7538376934        0.3271986390
 H        -6.0680189534        7.0701621708        1.1532209306
 H        -5.5779479225        3.9900846453       -2.2699629631
 H        -4.1860729970        4.2507869219       -1.5705391308
 H        -4.4941695644        4.5929754312       -3.3828442922
 H        -3.6351890851        7.1910996978       -1.7113096591
 H        -4.9028524133        8.1944433853       -1.9909832454
 H        -3.9775271355        7.5732760178       -3.4018999261
 H        -6.5653847225        1.9312871331       -7.8175645750
 H        -6.3412253565        3.1530787232       -8.8732695191
 H        -7.8209086332        2.2819389436       -8.8989210188
 H        -9.6012963413        5.0336214304       -8.1618216728
 H        -8.6274934233        4.3956571390       -9.5285816680
 H        -8.0668651768        5.7380897560       -8.5140191357
 H        -4.6023379155        1.5988659813       -3.5472185522
 H        -4.3946051630        0.0938222558       -4.3002981682
 H        -4.0600305083        0.2954718481       -2.6952382926
 H        -7.0612844386       -1.8595175635       -2.5468631933
 H        -5.4126408635       -1.5841869941       -1.8487548726
 H        -5.7398403683       -2.1075530741       -3.4502863075
 H       -10.8978649266        0.2709838245        1.0290149710
 H       -11.8948517726        0.1739637623       -0.3399092339
 H       -12.4052233230        1.1367257589        0.9885169846
 H       -12.7651393674        3.3448391411       -0.9643758643
 H       -12.8044367473        1.6340338427       -1.5572055181
 H       -11.6494396015        3.0201129807       -2.2288707538
 H       -10.2566601792        2.0846476229        4.4082920261
 H       -10.1193847205        2.1511148778        6.2473247476
 H        -9.9649202403        3.6227392273        5.3108527722
 H       -13.6764252088        1.7250789989        6.2015168285
 H       -12.2094441543        1.1551395267        6.7038491788
 H       -12.7774870531        0.6529684912        5.0013250865
 H       -16.4370700574        8.8186940534        8.4002183271
 H       -15.1843421543        8.1907238565        7.1686872085
 H       -15.1028840906        7.9098401555        8.8190793753
 H       -18.1926833338        7.4012747775        9.3123319089
 H       -17.0224163248        6.2666455927        9.8492053266
 H       -18.3482570482        5.7302372712        9.0124906428
 Na       -8.0525508028        3.8368706275       -1.4096570429
