117

 C       -18.0786078835        6.9722535318        5.6206153508
 C       -16.9630723942        7.7543582099        6.3507459078
 O       -16.4677110410        8.7221652308        5.8193913789
 C       -16.4300321753        7.2911966661        7.6942790356
 C       -15.7584188852        5.8781512524        7.3297088405
 O       -16.2828611430        4.8126565370        7.5127953957
 C       -14.3455309327        6.1253191464        6.7090692165
 C       -13.9012569605        4.9520934514        5.7191623858
 C       -12.5348542199        4.3761974254        6.0177485839
 O       -11.5969279442        4.9829154689        6.5109234609
 C       -12.3508805777        2.9276026683        5.3793938452
 C       -12.6955154580        2.9045941440        3.8290195735
 O       -13.6366951542        2.2492078211        3.4092974346
 C       -11.8809877016        3.4783262085        2.5995650859
 C       -10.6530134728        2.7009758091        2.1937461646
 C       -10.6104630849        2.8040802147        0.5818667629
 O        -9.9030388632        3.6617480037        0.1300066343
 C       -11.2165950046        1.8058678611       -0.4454299309
 C       -10.0602481092        1.3397333599       -1.3739918999
 O        -9.8441764832        1.8770827185       -2.5092643761
 C        -9.1949161827        0.3018290340       -0.9114700357
 C        -7.7917255977        0.8751827942       -0.4398590398
 C        -6.9530177553        1.1556656283       -1.7569567944
 O        -6.9345640091        2.2472914009       -2.2108222428
 C        -6.2478151748       -0.0182234425       -2.6468728380
 C        -7.2336721963       -0.0484729230       -3.9016512999
 O        -8.0607118815       -0.9343010632       -4.0066044548
 C        -7.1107560278        1.0714491068       -4.7760453231
 C        -8.1965703371        1.2053758253       -5.9731766294
 C        -8.4876351487        2.5931663150       -6.4519281249
 O        -9.3698154202        3.2295503153       -5.8404010761
 C        -7.6731682261        3.3603827316       -7.6395763559
 C        -6.7477332219        4.2035174982       -6.7097735412
 O        -5.8062236350        3.4852806133       -6.2569668287
 C        -7.1155836877        5.6240438579       -5.9573786343
 C        -6.0821475754        6.1378737066       -4.9327250011
 C        -6.2512902059        5.4355188956       -3.4979486082
 O        -7.3162447463        4.9596673837       -3.2004133141
 C        -5.2103397805        5.7206074622       -2.3485638549
 C        -6.0383003789        5.7864973894       -1.0280180746
 O        -6.1581292911        4.7285874671       -0.4574299212
 C        -6.4562897912        7.2035614389       -0.5426325827
 C        -4.2073297597        4.6448065012       -2.3563838976
 C        -4.3946612670        7.0866377584       -2.6685683449
 C        -7.0127361926        2.2872074575       -8.5326500832
 C        -8.6775042471        4.1796651820       -8.5288461496
 C        -4.7942120885        0.4336461278       -2.9590685062
 C        -6.2190750996       -1.3501686916       -1.8484251350
 C       -11.9602581263        0.6672874577        0.2999272453
 C       -12.2715438794        2.5380750281       -1.3987796363
 C       -10.8133002177        2.3661562560        5.6447270076
 C       -13.1747755919        1.8482550151        6.1607175761
 C       -15.5529569031        8.4441068609        8.4155092700
 C       -17.5079132901        6.9686912721        8.7249463894
 H       -18.8450904667        7.7662102942        5.4896466125
 H       -18.7569429852        6.2624202950        6.1389415235
 H       -17.7717870866        6.5413014582        4.6838233500
 H       -13.6084336308        6.0407731048        7.4871041445
 H       -14.1158526384        7.1474569236        6.2339461518
 H       -13.8921252175        5.2502876766        4.7050580213
 H       -14.6695668281        4.1690147231        5.8744276980
 H       -11.4531685926        4.4778601734        2.6204504933
 H       -12.6942281136        3.5381607491        1.8541221364
 H       -10.7660201226        1.7135285814        2.6000875319
 H        -9.6323384320        3.0907101314        2.4430749589
 H        -9.2792708944       -0.4478971358       -1.7603541418
 H        -9.6893531532       -0.1864002616       -0.0553433286
 H        -7.3976799336        0.0807473634        0.1524489143
 H        -7.8694712255        1.9065254330       -0.0733905888
 H        -6.1142552491        1.1328816217       -5.2113235706
 H        -7.3663741363        1.9080194125       -4.1296648021
 H        -9.1142401009        0.7053624728       -5.7471587574
 H        -7.7762194499        0.7064510594       -6.8029229587
 H        -7.9806500976        5.2031783656       -5.4777624801
 H        -7.3908493102        6.2787106719       -6.8942613886
 H        -6.3663479883        7.1627531401       -4.7944062865
 H        -5.0304860927        6.0571991400       -5.1687660993
 H        -5.6106065908        7.6314604107        0.0144375249
 H        -7.2629859800        6.9184457917        0.1736044523
 H        -6.7966015585        7.7271261940       -1.3787601544
 H        -3.8078708388        4.4617784913       -3.3381432052
 H        -4.4960196899        3.6323670890       -1.9519888598
 H        -3.4217071098        4.9822944985       -1.7616756452
 H        -3.5280591094        7.2155715076       -1.9551910802
 H        -5.1836480616        7.8743730481       -2.6875899185
 H        -3.9229824486        6.8894108054       -3.6059795969
 H        -6.0401815451        1.8925486527       -8.1165999744
 H        -6.9110666712        2.5785209582       -9.6104716985
 H        -7.5668545395        1.3556091729       -8.6440082749
 H        -9.1658698907        4.9763185919       -7.9408920058
 H        -9.5447089357        3.6851217792       -9.1479031520
 H        -8.2486186833        4.7750805025       -9.3625557744
 H        -4.8255439116        1.4474146046       -3.3115378852
 H        -4.2983454353        0.0227132051       -3.7555218995
 H        -4.1471073687        0.3996452807       -2.1623251902
 H        -7.1206190994       -1.9395287384       -1.8158450776
 H        -5.8975335448       -1.2489629361       -0.8145096417
 H        -5.4107902261       -1.8467691485       -2.3295404034
 H       -11.2916106202       -0.0132143228        0.7725307448
 H       -12.4677251856        0.1140710430       -0.5071979887
 H       -12.6655967480        0.9792354855        0.9561368695
 H       -11.7233806707        2.9321347125       -2.2723182495
 H       -12.7708403727        3.4270758024       -0.8337989171
 H       -13.0796692392        1.9481057882       -1.6637979518
 H       -10.5843146104        1.4646692436        5.1043308779
 H       -10.7622813404        1.9302205148        6.6410664999
 H       -10.2135598668        3.2179934835        5.3823562133
 H       -14.2095537398        1.9304551100        5.9491963440
 H       -12.9742876899        1.9625800333        7.1406410762
 H       -12.7122072262        0.8304573677        5.7959482133
 H       -16.0984095821        9.3171625532        8.6966672642
 H       -14.8761262740        8.8673997179        7.7156638616
 H       -15.0498568642        8.0522500466        9.3506566550
 H       -18.1241511315        7.7893566216        8.9481121682
 H       -17.2340875485        6.7056107502        9.7340414040
 H       -18.0789546273        6.1979494633        8.2426851470
 Na       -8.5448183291        3.7873172490       -1.6611567903
