117

 C       -18.0412913317        7.2598651055        5.5988232727
 C       -16.9671891414        7.9509403449        6.2926127357
 O       -16.2784746913        8.8348439785        5.8046996509
 C       -16.4785698888        7.2357965437        7.7049613721
 C       -15.7386366277        6.0189104623        7.2929803761
 O       -16.1079651271        4.8727016777        7.3811347452
 C       -14.2375349257        6.1298003153        6.7426494980
 C       -13.9630558347        4.9724688267        5.7274625372
 C       -12.5187681390        4.4232435793        5.9436914690
 O       -11.6533143979        5.1249392717        6.4187191076
 C       -12.4039923055        2.9257129233        5.4122062659
 C       -12.6963411268        2.7173375595        3.8648221207
 O       -13.8043560182        2.2629170763        3.6253584872
 C       -11.8558822238        3.3403119657        2.7047188738
 C       -10.5678875180        2.6647548858        2.1567750718
 C       -10.4452727981        2.7248127458        0.5256771158
 O        -9.9050569058        3.7552096287        0.1447349114
 C       -11.2156314060        1.7794885602       -0.5359075214
 C       -10.0816161943        1.2385983019       -1.5015630602
 O        -9.8452595608        1.8585327206       -2.5392856464
 C        -9.1287789858        0.0312414912       -0.8616936783
 C        -7.7725799816        0.7447699782       -0.4042461147
 C        -7.0588997496        1.1119363843       -1.7313734859
 O        -7.0676633768        2.2792934507       -2.0716579623
 C        -6.3970886894        0.0371498784       -2.5070361378
 C        -7.3123959119       -0.0627754155       -3.9065474203
 O        -8.1449490389       -0.9215277604       -4.0760504099
 C        -7.0842904081        1.1467428574       -4.8887881781
 C        -8.1110384153        1.0567882407       -6.0357091584
 C        -8.5179972180        2.5358505839       -6.4334173230
 O        -9.2136449829        3.2424134881       -5.7342285988
 C        -7.7027886311        3.1840958797       -7.5574026554
 C        -6.6660214443        4.0043793773       -6.6459956225
 O        -5.7231684615        3.4488772148       -6.2012564857
 C        -7.0118689495        5.4910469401       -6.0879939363
 C        -6.0683357978        6.0265203478       -4.9814437775
 C        -6.2424764773        5.5600451431       -3.5753165154
 O        -7.2550465859        4.8817506646       -3.3096389148
 C        -5.1668931529        5.7736234364       -2.4901586207
 C        -5.9980461541        5.8251999342       -1.1027888749
 O        -6.1986278536        4.8332540363       -0.4123723061
 C        -6.6254487029        7.1170959082       -0.5876483897
 C        -4.2242337616        4.4738389010       -2.4757802539
 C        -4.4767508185        7.1517530025       -2.6490158559
 C        -7.0343234414        2.2613840162       -8.5566528885
 C        -8.6844972810        4.0446528284       -8.4602410076
 C        -4.9855673928        0.5542053709       -2.8426195241
 C        -6.2412636783       -1.2527935419       -1.6538614517
 C       -11.9666947245        0.6273373207        0.2570638840
 C       -12.1845798623        2.7251387374       -1.2923212920
 C       -10.8257508352        2.5284958452        5.6264755117
 C       -13.4364690722        1.9770761491        6.1752954005
 C       -15.5034350988        8.2877126623        8.3051564996
 C       -17.6066287103        7.0914200129        8.8143705188
 H       -18.9894779777        7.7518655189        5.2671990203
 H       -18.4351135295        6.6334369024        6.3878156962
 H       -17.6484473320        6.5670681560        4.8880058505
 H       -13.4518977574        6.2391366433        7.5038789386
 H       -14.0071052262        6.9040806919        6.0650045074
 H       -14.1315109964        5.4234338748        4.7482619528
 H       -14.7044286751        4.2446760742        5.9452060027
 H       -11.4467266139        4.3373121332        2.9308797420
 H       -12.6404445516        3.5156600146        1.9487722652
 H       -10.4909809466        1.6279814983        2.5256723532
 H        -9.6062829413        3.1433599008        2.3909305495
 H        -9.1474027518       -0.6775016682       -1.6474468746
 H        -9.6231503665       -0.4946009303       -0.0359790545
 H        -7.2076531743       -0.0377607434        0.2342592078
 H        -7.9317784956        1.6725177193        0.0401136989
 H        -6.1131357869        1.0751665207       -5.2936119459
 H        -7.3237756585        2.1393519368       -4.3766129939
 H        -9.0217171557        0.6007369437       -5.5401128825
 H        -7.7632552794        0.3894485098       -6.8430898859
 H        -7.9779598490        5.4129734385       -5.7723633092
 H        -6.9373277287        5.9555247023       -6.9873226340
 H        -6.3205792521        7.0513465147       -4.9368355959
 H        -5.0005950452        5.9715155557       -5.1007552557
 H        -5.8712323356        7.3727316615        0.1285122892
 H        -7.5571979113        6.9471866449        0.0364119667
 H        -6.7534739737        7.8128989262       -1.4588940547
 H        -4.3243708477        3.6722356978       -3.2304604284
 H        -4.4362941816        3.9820345509       -1.4812100924
 H        -3.0070987843        4.7213936053       -2.4083016879
 H        -3.9757467005        7.2239226586       -1.7101306529
 H        -5.3230816379        7.9308128348       -2.7674450818
 H        -3.6406332091        7.1157737848       -3.3958721552
 H        -6.2983421834        1.4700649558       -8.0975511927
 H        -6.5668963060        2.8877658523       -9.3634053396
 H        -7.6534030679        1.5921197879       -9.2126456014
 H        -9.4399368220        4.5712090599       -7.9220670828
 H        -9.2502844093        3.4254389764       -9.2121861522
 H        -8.2936203584        4.8158316940       -9.0854701055
 H        -4.8860364102        1.5422824702       -3.2212442073
 H        -4.5177980362        0.0357557778       -3.7275704696
 H        -4.2602295246        0.4692412677       -2.0156507073
 H        -7.3205306874       -1.6610705836       -1.4787242124
 H        -5.7856604544       -1.2279526586       -0.6512332057
 H        -5.6525510807       -1.9476153702       -2.2293538385
 H       -11.3140494238        0.2597984574        1.1051976527
 H       -12.1399175561       -0.1724659577       -0.4215170101
 H       -12.9932489156        0.8724315366        0.6066297360
 H       -11.7277780443        2.8926785024       -2.2196934749
 H       -12.5290123498        3.6905326057       -0.8744812007
 H       -13.1203218152        2.1576319334       -1.3948265133
 H       -10.5742526212        1.5425719538        5.2826270639
 H       -10.6987759529        2.3859844720        6.6143353863
 H       -10.2523257277        3.3972225962        5.1537795632
 H       -14.4158633378        2.5086451859        6.0857817744
 H       -13.1365370675        1.6482786210        7.1908894044
 H       -13.4793450302        1.1116061786        5.5033657400
 H       -15.9268359533        9.3035644211        8.4673477776
 H       -14.8369271034        8.5313842074        7.4404394623
 H       -14.9719491529        7.9256579166        9.0995708657
 H       -18.1184999490        8.0389717506        9.1412274812
 H       -17.2720064720        6.6976916698        9.7304347529
 H       -18.3343568548        6.3370967791        8.3699330945
 Na       -8.4278414166        3.7963877223       -1.6531183919
