117

 C       -17.9726717116        7.8994171013        5.7539613337
 C       -16.7877849641        8.4628414748        6.2707994351
 O       -15.8777729011        9.1501612221        5.7735695361
 C       -16.4026298835        7.6748465883        7.6263274390
 C       -15.6720359299        6.1806535578        7.1267188956
 O       -16.2412354553        5.1487007636        7.2824383362
 C       -14.2240597869        6.2318042689        6.4335345796
 C       -14.0116683614        5.0437739979        5.3027928728
 C       -12.5960774584        4.5099337186        5.5530269936
 O       -11.7113825545        5.2808857119        5.8450464333
 C       -12.4045273795        2.9191456012        5.4115950629
 C       -12.9162348755        2.7815091169        3.8823880864
 O       -13.8498877872        2.1737215717        3.3943915481
 C       -11.9076856007        3.4587217982        2.7975688514
 C       -10.8602263337        2.4580891437        2.3877386402
 C       -10.5189128221        2.6342030768        0.8081745380
 O        -9.6914232648        3.4943837041        0.6591817439
 C       -11.3646528279        1.8659539723       -0.3902627252
 C       -10.1845038810        1.2590685417       -1.2570908673
 O        -9.7338536206        1.9137645769       -2.2481519930
 C        -9.4669735217        0.0197907854       -0.7094449012
 C        -7.9294115340        0.2570508152       -0.2645884975
 C        -7.0608302021        0.9178784794       -1.4643404450
 O        -6.9116903679        2.1102364061       -1.5395308798
 C        -6.3316313792       -0.1284567990       -2.4154243139
 C        -7.3412120034       -0.2099814277       -3.7424937205
 O        -8.1843628273       -1.0727333169       -3.6682010012
 C        -7.0277153807        0.7378903758       -4.8340491239
 C        -8.2222986759        0.8007628264       -5.8860866420
 C        -8.4316752686        2.2820092966       -6.2714287439
 O        -9.2677063682        2.9251130824       -5.6846845670
 C        -7.5138723497        3.0871970229       -7.3503058883
 C        -6.4731600714        3.8089260372       -6.5052767978
 O        -5.3764637034        3.2961125692       -6.2723718209
 C        -6.6042895987        5.3695969943       -6.3170330871
 C        -5.7210508535        5.7737190477       -5.2618596960
 C        -6.3712296706        5.5114585194       -3.8332608219
 O        -7.5108930465        5.0333367681       -3.7492557338
 C        -5.4292237330        5.7055041239       -2.6399884346
 C        -6.1998510060        5.8612541441       -1.3928311278
 O        -6.4727537781        4.8663552381       -0.7277757824
 C        -6.9434646934        7.2013357374       -0.9135818146
 C        -4.4404583547        4.4572306917       -2.5684178906
 C        -4.6457273414        7.0479867786       -2.9114237100
 C        -6.8419774511        2.1164128584       -8.3295869431
 C        -8.4444662876        4.0531460170       -8.1263496178
 C        -4.9610049763        0.5034615932       -2.7779004645
 C        -6.1369410676       -1.5896344102       -2.0447649199
 C       -12.3394968466        0.8631149886        0.2624596799
 C       -12.0253495910        2.8719640889       -1.2887495701
 C       -10.8667059156        2.5083211952        5.6043111394
 C       -13.2254132203        2.1238710490        6.4789839294
 C       -15.3949026793        8.4646560831        8.4685140540
 C       -17.4904082812        7.1946530341        8.5539378797
 H       -18.3518439006        8.4429097326        4.8431774394
 H       -18.7584036198        7.9137633571        6.5344589526
 H       -17.8255033508        6.8857962794        5.4386498034
 H       -13.3714166718        6.4940987780        7.0911268314
 H       -14.1434653928        7.2032665886        5.8149090153
 H       -13.7220709590        5.4653571812        4.3559390581
 H       -14.9213618907        4.3586148667        5.3301428570
 H       -11.5255975960        4.4497494951        3.1125000589
 H       -12.5172989237        3.5877768596        1.8881492995
 H       -11.1300065698        1.4433262144        2.5416957821
 H        -9.8256790540        2.5295046774        2.7938644832
 H        -9.5272950683       -0.8164104390       -1.4780489718
 H       -10.2497743153       -0.3599716212       -0.0167894803
 H        -7.4074384151       -0.6608832115        0.1358990701
 H        -7.8184861885        0.9749343004        0.5666664750
 H        -6.1339221230        0.4341981251       -5.3439430568
 H        -6.9441405454        1.6864689326       -4.3057436574
 H        -9.0734681962        0.4272428508       -5.3808440717
 H        -8.0498142559        0.2514619277       -6.7342181631
 H        -7.7005704741        5.5417820793       -6.1311854129
 H        -6.3117620115        5.7333288500       -7.3792449527
 H        -5.5281598580        6.8570266364       -5.3231441876
 H        -4.6970664047        5.3023119790       -5.3036935998
 H        -6.4442633623        7.6094963231       -0.0854985964
 H        -7.9268311980        6.8078146611       -0.4912928216
 H        -7.1489002835        7.8709668438       -1.7380509293
 H        -4.6061806562        3.9134968132       -1.7639294184
 H        -3.4084054349        4.6779254515       -2.5254626639
 H        -4.8364165402        3.7423854579       -3.3191029814
 H        -4.0517978020        7.2770442980       -2.0662798498
 H        -5.5437585655        7.6448078689       -3.1082407319
 H        -4.1031881830        7.0187822262       -3.8063669433
 H        -6.3230337760        1.2505252285       -7.9569888174
 H        -6.3812873793        2.5596262040       -9.1261053290
 H        -7.6629672879        1.7021526620       -8.8010784639
 H        -9.0303628394        4.8185291908       -7.5926477917
 H        -9.3221463842        3.5097452054       -8.6804741622
 H        -7.9582292125        4.7275668270       -8.8309003286
 H        -5.0479322667        1.4560517329       -3.2182380508
 H        -4.2595548905        0.0660764689       -3.4224243835
 H        -4.4596798772        0.7315320554       -1.8974035671
 H        -7.1145657624       -2.0191446272       -1.7543240056
 H        -5.5146547141       -1.7639364203       -1.1967202815
 H        -5.7508940114       -2.1459176260       -2.8368707968
 H       -11.8920017852       -0.0009066575        0.7303148006
 H       -13.0906691909        0.6086782067       -0.4365330986
 H       -12.8795831133        1.3289889487        1.0244145419
 H       -11.4182714147        3.7044979914       -1.6136658408
 H       -12.8062932818        3.3409704183       -0.5543612351
 H       -12.6652586556        2.4098112746       -2.0219591146
 H       -10.8113487444        1.4108726035        5.7574818793
 H       -10.4999556551        2.9740205832        6.4274630678
 H       -10.3380154715        2.9152868591        4.6688558080
 H       -14.2727272568        2.1540077719        6.4118653079
 H       -12.8326981241        2.5127457379        7.3671220928
 H       -12.8500702052        1.0750026581        6.4833849571
 H       -16.0000707757        9.2219222289        8.9706028496
 H       -14.6283797541        9.0730038882        7.8774652202
 H       -14.9017675453        7.7943614442        9.1308166076
 H       -18.1353139876        8.0383138933        8.7062736193
 H       -17.0949776000        6.9678904934        9.5070639678
 H       -18.0990623760        6.3310143180        8.2103747871
 Na       -8.3982664588        4.1296067950       -1.5423848486
