117

 C       -18.0385752753        8.5091234565        5.6005428959
 C       -16.6139746369        8.4684307161        6.3456221251
 O       -15.8213479977        9.2732146348        5.8928640797
 C       -16.2582243655        7.7554403160        7.6434213269
 C       -15.5169252228        6.3341828708        7.1075610149
 O       -16.2606837938        5.3526346130        7.0631117330
 C       -14.2784437423        6.4389616749        6.1664644379
 C       -13.9557821706        5.1575771490        5.5260116422
 C       -12.5901730762        4.6316485252        5.4700360119
 O       -11.6233767510        5.3651509571        5.5522523521
 C       -12.4151139622        3.1271093709        5.4163362215
 C       -12.8755763136        2.7785752739        3.8880116396
 O       -13.7660649114        2.0024309308        3.6485077624
 C       -11.9778390537        3.3946416203        2.7110868308
 C       -10.9268637686        2.3222537773        2.2847181029
 C       -10.4889710007        2.6414835646        0.8803050097
 O        -9.4640175652        3.3093652939        0.6652456997
 C       -11.3902057976        1.9718302307       -0.3343939501
 C       -10.2471735426        1.3598244442       -1.0913021534
 O        -9.6243816787        2.0743977279       -1.7944694928
 C        -9.5793583854       -0.0994411540       -0.7022680135
 C        -7.9832683488       -0.0573232482       -0.2920059498
 C        -7.0354335807        0.5694208952       -1.3629122459
 O        -6.9047511715        1.7830675116       -1.3669407530
 C        -6.1892854190       -0.3245155517       -2.4470393797
 C        -7.2958413618       -0.3505550458       -3.6088752727
 O        -8.3451548350       -0.9436145867       -3.5432465860
 C        -6.9689369324        0.6212634023       -4.8076821020
 C        -8.1598105784        0.7848545590       -5.7181516359
 C        -8.4759473687        2.2111464369       -6.2125404109
 O        -9.4232711216        2.8564900765       -5.8115031657
 C        -7.4663379759        2.9617189406       -7.4459878022
 C        -6.3787019483        3.7280317141       -6.6828084662
 O        -5.4479618737        3.0948842715       -6.1952775328
 C        -6.3900249877        5.2709600806       -6.5698019508
 C        -5.7416255789        5.9547306839       -5.2448060095
 C        -6.4298367868        5.5799110032       -3.9056972823
 O        -7.5312834753        5.1624929294       -3.6515490485
 C        -5.5172642780        5.7722446743       -2.6723086074
 C        -6.4188815231        5.9075214603       -1.4413400624
 O        -6.7290098056        4.9776181174       -0.7512253855
 C        -6.9891315071        7.2645894739       -1.2237291270
 C        -4.5280803929        4.6356410562       -2.4580408143
 C        -4.4917417272        7.0449376544       -2.7784282357
 C        -6.9255050505        1.7093377048       -8.2988461103
 C        -8.4130959906        3.7948346019       -8.2149478615
 C        -4.8795501644        0.3619921645       -2.7967859859
 C        -5.9477651431       -1.7432938995       -1.6988597787
 C       -12.5167698447        1.0540400198        0.0887002955
 C       -11.9991142329        3.2904151101       -1.1722883810
 C       -10.9401077195        2.7457769837        5.5248109905
 C       -13.4809566321        2.2490894254        6.3250703318
 C       -15.1333161083        8.4178640422        8.3876903130
 C       -17.4957798168        7.3899464379        8.3951682995
 H       -17.8072451248        8.5756737113        4.5598763688
 H       -18.7184800516        9.2827372081        5.9452808461
 H       -18.6885262450        7.5982872614        5.6644577534
 H       -13.4245403333        6.9887165962        6.4786444690
 H       -14.5999148409        7.1563320081        5.4611224002
 H       -14.1793535134        5.1503782662        4.4419150657
 H       -14.4973082046        4.4450165238        6.0802921372
 H       -11.6633618746        4.3579074191        3.1527544053
 H       -12.6570649403        3.5750812619        1.8762926633
 H       -11.2205856350        1.2399329419        2.3240963109
 H       -10.0035748076        2.3954670401        2.8507404234
 H        -9.5109736772       -0.7291986335       -1.5711711082
 H       -10.2150634250       -0.6856722061       -0.0595283976
 H        -7.6574341172       -0.9634935208        0.0992792262
 H        -7.8878931418        0.5659582348        0.6365127818
 H        -6.1236177520        0.2624700649       -5.4507851703
 H        -6.6826393835        1.5712358167       -4.3203278283
 H        -9.0458022218        0.4188370601       -5.1473439999
 H        -8.0431959609        0.0993372289       -6.6408816128
 H        -7.3905078227        5.4547734010       -6.7120204308
 H        -5.7824417986        5.6293759132       -7.4095047669
 H        -5.6441087341        7.0077049573       -5.4293593789
 H        -4.7504171506        5.6635454246       -5.0990804697
 H        -6.0975356282        7.9070529164       -0.8454204188
 H        -7.7429027753        7.1758347504       -0.4561579900
 H        -7.5434360040        7.6639253744       -2.0874917975
 H        -3.6370734552        4.8313610401       -1.6827411629
 H        -3.8479640814        4.4901745383       -3.3836615569
 H        -5.0924985320        3.7990228199       -2.0852729101
 H        -4.0179431109        7.1521779223       -1.7416920579
 H        -5.0507601481        7.8696200027       -3.1729873527
 H        -3.8064478543        6.6848786024       -3.5617101237
 H        -6.0923828739        1.1566991844       -7.7772334335
 H        -6.4757149316        2.1298736845       -9.3000541213
 H        -7.6988992975        0.9040571893       -8.6374995909
 H        -8.9857084507        4.5024745496       -7.6592268761
 H        -9.1602333934        3.1865418103       -8.6694040629
 H        -8.0109439380        4.4858708152       -8.9448391770
 H        -4.8884092507        1.4835249579       -2.9649705376
 H        -4.4687096483       -0.0136589813       -3.7099302531
 H        -4.0617656240        0.2538978038       -2.0838339742
 H        -6.6649376068       -2.5127670523       -1.6408458040
 H        -5.5854432842       -1.5804691743       -0.6605842241
 H        -5.1105683369       -2.2932069726       -2.2659506710
 H       -12.2429054177        0.1940354346        0.6698516039
 H       -13.1511891956        0.7335557146       -0.8110105138
 H       -13.1549988340        1.5938505075        0.7873505628
 H       -11.4614278431        4.1952647268       -0.8168071288
 H       -13.0290172248        3.4953200810       -0.9919838239
 H       -11.8350280110        3.1459572188       -2.2236829678
 H       -10.7163358009        1.8341162090        4.9614633768
 H       -10.8503666798        2.6629615666        6.6990978886
 H       -10.3185026208        3.5489724014        5.3333397317
 H       -14.4455543490        1.9696150967        5.7978856704
 H       -13.5684763984        2.5717210203        7.3500967162
 H       -12.9681026119        1.2134081197        6.3871532608
 H       -15.5680149204        9.2948028875        8.8096908536
 H       -14.3135363427        8.6545075267        7.7809828240
 H       -14.7483864933        7.6848892407        9.1783595243
 H       -18.1607266159        8.2937871060        8.4630636904
 H       -17.1023273007        6.8459949280        9.3467589739
 H       -18.0824610119        6.6490893878        7.9044449649
 Na       -8.5822404619        3.7369724955       -1.5449109481
