117

 C       -12.5298176025        4.9822216045       -5.2072089707
 C       -11.9761238234        5.1147285049       -6.6787908546
 O       -11.8306306969        6.2231226220       -7.1049677553
 C       -11.5868738227        3.8841425304       -7.5559153637
 C       -10.2844010868        3.3210432601       -6.8445320838
 O       -10.2590308891        2.3411398732       -6.1183909539
 C        -8.9361390434        4.1475049566       -7.1766142411
 C        -7.8149367031        3.8168503570       -6.2287485921
 C        -8.1873358599        4.4965371444       -4.8578742920
 O        -8.8431540030        5.5242296639       -4.9304100233
 C        -8.1927342788        3.6489317973       -3.5431574989
 C        -7.3564014051        4.4053729306       -2.4745864707
 O        -6.2689548335        3.9712540628       -2.0618288093
 C        -8.0068838056        5.8206844148       -2.0355871375
 C        -7.1129181099        6.5530587370       -0.9779938025
 C        -7.0818420113        5.7908242258        0.3412135951
 O        -7.7754106028        4.7752888449        0.3777695407
 C        -6.3495892842        6.3623433620        1.6048258709
 C        -7.3073997998        7.2290909664        2.6157893529
 O        -7.9982952030        8.1051033837        2.1432368971
 C        -7.0820209236        7.1830562978        4.1690241520
 C        -8.4254660879        7.0934080134        4.9148839119
 C        -9.1469969092        5.9164010148        4.3981448812
 O        -8.4955288225        4.9564967618        3.9479796074
 C       -10.7438370118        5.7827285384        4.3762337574
 C       -11.2316460602        4.2660025395        4.1119424493
 O       -10.5896545835        3.4833269380        3.4092296155
 C       -12.5058194272        3.7552477054        4.8725638651
 C       -13.3501066839        2.6697436811        4.0159412035
 C       -13.7204135368        2.9148662412        2.5390353914
 O       -13.6243085030        3.9809321370        1.9900727062
 C       -14.1821594711        1.6044731697        1.8559851583
 C       -12.9149941312        0.6293519762        1.8234829217
 O       -12.6333764400        0.0317889733        2.9073441175
 C       -11.9993002364        0.4583267543        0.5115563744
 C       -10.7689068708       -0.3841895809        0.7696518717
 C        -9.5066711782        0.3761607175        1.2896666715
 O        -9.4034904186        1.5648790379        1.0705482452
 C        -8.3824211639       -0.4205957325        2.0802545340
 C        -8.0790092909        0.3404235641        3.4297277151
 O        -7.8248262801        1.5260893870        3.4533582376
 C        -7.8906160202       -0.5794295995        4.6639072145
 C        -8.7890678034       -1.9105293023        2.1409536442
 C        -7.0268922525       -0.3176463585        1.3164056644
 C       -15.2622253598        0.9453525974        2.7748608732
 C       -14.6987425314        1.8801080427        0.3900451806
 C       -11.2701782231        6.2778893336        5.7352921261
 C       -11.3917316500        6.7027250205        3.2700533610
 C        -5.6681733752        5.0736834917        2.2887608798
 C        -5.3862468247        7.4696110933        0.9720636164
 C        -9.7146733993        3.3684678938       -3.0972336126
 C        -7.6509081279        2.1687408412       -3.7001635562
 C       -12.5279393038        2.7506320400       -7.4879003148
 C       -11.3415771723        4.2619889351       -9.0014929975
 H       -11.6975557246        5.3023102166       -4.5937409641
 H       -12.7160143716        3.8884386589       -5.0205462958
 H       -13.3855565517        5.6515656532       -5.1613561846
 H        -9.2539616345        5.1996530852       -7.0655239439
 H        -8.7832928080        3.8246749661       -8.2532586783
 H        -6.8960027170        4.2942060100       -6.6241733256
 H        -7.5606525666        2.7378682107       -6.1397596738
 H        -9.0294960135        5.8172656068       -1.8361352357
 H        -7.8309263050        6.4973686947       -2.9118725215
 H        -7.6029463516        7.5588959925       -0.7839636261
 H        -6.2044342915        6.9354577350       -1.4215226244
 H        -6.3939548332        8.0178365732        4.3335974519
 H        -6.5196357747        6.2828673829        4.4241137649
 H        -9.0174586795        8.0256185110        4.7438593077
 H        -8.2740861541        6.9343241489        5.9627242857
 H       -13.2386523019        4.5750748965        5.1791465128
 H       -12.1248836653        3.2668666352        5.8418779332
 H       -14.1554279029        2.4470954116        4.6989275730
 H       -12.7433482021        1.7554740720        4.0322988640
 H       -11.6999968769        1.5169036352        0.2615787752
 H       -12.5948774952        0.1676307028       -0.3596138657
 H       -10.5807926687       -1.1086220588       -0.0431202564
 H       -11.0036823546       -1.0144789811        1.6020521246
 H        -8.1222138714       -0.0940321400        5.5617162454
 H        -6.8858572513       -0.9290591668        4.6755607732
 H        -8.6576395557       -1.3365076308        4.7352839108
 H        -8.9648939673       -2.2389504885        1.0653208865
 H        -9.8108369114       -1.9261113163        2.6334666550
 H        -8.2180539730       -2.6112170790        2.7084168908
 H        -6.7242435091        0.7436610605        1.1994542392
 H        -7.0241169258       -0.7223101032        0.3310597408
 H        -6.2605250103       -0.9297825504        1.8623841083
 H       -14.7669135555        0.5197513315        3.6003881918
 H       -15.6756187973        0.0852122784        2.2856272215
 H       -16.1122921554        1.5676060760        2.9596747430
 H       -15.5808174190        2.4931542876        0.5933728412
 H       -14.9797514629        1.0557305618       -0.1964479890
 H       -13.9141972874        2.3619987559       -0.2049746435
 H       -10.7510450896        7.1558426221        6.1159619972
 H       -11.1601417221        5.4255002403        6.4468919450
 H       -12.2935786699        6.4744432042        5.6313576250
 H       -11.8026474641        5.9118442493        2.6132674002
 H       -10.8672496841        7.4214550708        2.7051384823
 H       -12.2530186973        7.2121822509        3.7231413848
 H        -4.8619105213        5.4582384788        2.8858441490
 H        -5.1904753607        4.4428562966        1.4673113867
 H        -6.4391451425        4.3670192851        2.7411468734
 H        -4.8809224214        7.0218566497        0.1064403715
 H        -4.6952299591        7.7348342872        1.7087559817
 H        -5.9777594384        8.2135917712        0.5161627008
 H       -10.1415040249        2.6967396067       -3.8568658320
 H       -10.3073907087        4.3105606383       -2.9852619617
 H        -9.8716521459        2.9239711740       -2.1574985855
 H        -8.0880677671        1.7681913723       -4.5994234848
 H        -7.9280408741        1.5417679414       -2.8251227474
 H        -6.5434366528        2.1334920979       -3.6455524982
 H       -12.7584025534        2.4570892796       -6.4161404306
 H       -12.0737048764        1.7788429324       -7.8751555741
 H       -13.4310805742        2.7991678065       -8.0792017038
 H       -10.4960235467        5.0130019209       -8.9894605239
 H       -12.3036295398        4.6562153184       -9.2564170816
 H       -11.0618145285        3.3323144968       -9.4507939336
 Na       -8.5887944138        3.4411523686        2.0982243235
