117

 C       -17.7802276063        9.5002443176        5.8814619096
 C       -16.4485849187        9.1780152629        6.3746270346
 O       -15.4928130253        9.7030632080        5.8304381194
 C       -16.1217381268        8.1362070019        7.5006099947
 C       -15.8094873522        6.7065158102        6.7286419455
 O       -16.5492647704        5.7365322665        6.7720081173
 C       -14.5053801014        6.6517380189        5.8600340973
 C       -14.2379676824        5.2338193317        5.3014963795
 C       -12.8113950882        4.7166452921        5.4495047426
 O       -11.8836155793        5.4917928896        5.3557258151
 C       -12.4966250062        3.1445789991        5.5039913465
 C       -12.7656538346        2.6097505238        4.0307467699
 O       -13.6165182316        1.7757476337        3.7636079857
 C       -11.9319593709        3.1000347956        2.7141056733
 C       -10.6645902801        2.2234063758        2.2522451484
 C       -10.2164184987        2.6893833950        0.7400245143
 O        -9.1038693455        3.2327158558        0.5104585255
 C       -10.9679885426        2.2205531113       -0.4578043215
 C        -9.8459964901        1.3051994554       -1.4557249458
 O        -9.7405985067        1.6970901677       -2.5885743871
 C        -9.6045534015       -0.0985482867       -1.0629888592
 C        -8.3406408340       -0.2714672013       -0.1749801917
 C        -7.2472644240        0.2738037291       -1.1005765228
 O        -7.1099624820        1.5148428590       -1.1079086128
 C        -6.4743352618       -0.5441010318       -2.1428256827
 C        -7.3595200438       -0.3959472368       -3.5155396686
 O        -8.2129695907       -1.2491395404       -3.6219671761
 C        -7.2345819785        0.7045634005       -4.5370841478
 C        -8.3555279217        0.6489660953       -5.5338166703
 C        -8.5577377810        1.9357253642       -6.3704160390
 O        -9.3358659246        2.8120008969       -5.9352873056
 C        -7.4893305910        2.4819522568       -7.2454442473
 C        -6.6126739945        3.4099718775       -6.3534884956
 O        -5.6081880326        2.9114949709       -5.8164786295
 C        -6.8667456022        4.8894116002       -6.2195921752
 C        -5.9340907001        5.4821493396       -5.1884495819
 C        -6.4912534021        5.2073064185       -3.8271448102
 O        -7.5050583824        4.5439109209       -3.6523079580
 C        -5.5749746902        5.9390437387       -2.6620050190
 C        -6.5291312389        6.4313228096       -1.4471855909
 O        -7.0689589797        5.6544599079       -0.6880566817
 C        -7.0703422260        7.8841816866       -1.4229587165
 C        -4.8977444512        4.6562325561       -2.0821235178
 C        -4.5246618424        6.9461713664       -3.1072185047
 C        -6.6984529683        1.2901936078       -7.8487346344
 C        -8.1122679149        3.3148611701       -8.3755709711
 C        -5.0128112928        0.1630606487       -2.2181558413
 C        -6.2507666191       -1.9987713694       -1.8099878833
 C       -12.1751864846        1.3297242656       -0.1388017236
 C       -11.4329124598        3.3453719218       -1.3751055218
 C       -10.9186062933        2.9727120051        5.7018441752
 C       -13.2955418524        2.3703384907        6.6156964664
 C       -14.8846980918        8.7702460927        8.4010392764
 C       -17.4200306223        7.9262443682        8.3454708938
 H       -18.2530015711        8.5724715833        5.5866472755
 H       -17.6179044779       10.1832226190        5.0201979860
 H       -18.5036454638       10.1042271085        6.4846711670
 H       -13.6933357562        6.9653766730        6.5224846391
 H       -14.4683623297        7.4190735172        5.0858646216
 H       -14.3487530279        5.5039245916        4.2122014336
 H       -14.9800135096        4.5404644332        5.5597700272
 H       -11.6842193960        4.1647008423        2.9819861486
 H       -12.7891676554        3.1406758024        2.0365508449
 H       -10.8121985467        1.1170937962        2.1418508820
 H       -10.0030932390        2.3713400859        3.1012040912
 H        -9.3161880603       -0.6328633028       -1.9859074027
 H       -10.3885098192       -0.6980599534       -0.6215895699
 H        -8.3134124279       -1.2497675808        0.1509418834
 H        -8.5774641347        0.2974159563        0.7988586196
 H        -6.1799667878        0.7642880172       -4.8570014124
 H        -7.3474026245        1.6498606776       -4.0441540978
 H        -9.2896458319        0.4719248384       -5.0483632268
 H        -8.1902467856       -0.1708346994       -6.2290470526
 H        -7.7936460591        4.9683617444       -5.8631292539
 H        -6.7448105197        5.2632975822       -7.1903956666
 H        -5.7496221498        6.5304993735       -5.1906474910
 H        -4.9671920091        5.1012213814       -5.2147277291
 H        -6.3443785028        8.5419989983       -1.9391557123
 H        -7.3754027925        8.0933163068       -0.3902030533
 H        -8.0367897382        7.8629122378       -1.8346931072
 H        -4.3855921772        4.1343291318       -2.8985745003
 H        -5.3912134643        3.8700032860       -1.3195248916
 H        -4.1146134833        5.2672814737       -1.5775080046
 H        -3.9968434000        7.1553818669       -2.1171123809
 H        -5.0014272216        7.8539144075       -3.4723388000
 H        -3.9963076131        6.4063500985       -3.8474193133
 H        -6.1996918425        0.7435871428       -6.9602414868
 H        -5.8078005346        1.5566728424       -8.4272312524
 H        -7.4565610292        0.6440054949       -8.2599872795
 H        -8.7576769428        4.1348963671       -8.1375091558
 H        -8.8080647898        2.6014091289       -8.9964235503
 H        -7.5048906866        3.6993289689       -9.1842575563
 H        -5.0921883512        1.1860985439       -2.4929178639
 H        -4.2283892306       -0.2953400912       -2.6930506140
 H        -4.5899704315        0.2165115035       -1.2771316239
 H        -7.1019294586       -2.5624954994       -1.6861247592
 H        -5.8149789475       -2.0164317755       -0.8186031390
 H        -5.6367720220       -2.6135625553       -2.4480884478
 H       -12.1289066227        0.4437011755        0.4298782874
 H       -12.5768992459        1.0144056904       -1.1077271455
 H       -12.8810501100        1.9575739325        0.2425034967
 H       -10.5900430110        3.6963181511       -2.0377246514
 H       -11.8226627064        4.2167462504       -0.7928330581
 H       -12.0565952430        3.0033558790       -2.0898284444
 H       -10.5556149651        1.9474386656        5.6448163218
 H       -10.6452356278        3.6955623428        6.4503760593
 H       -10.4141094659        3.3710885193        4.8514564618
 H       -14.2858035988        2.2307375706        6.0883430104
 H       -13.4439686583        2.7459099015        7.5627233577
 H       -12.9390107512        1.2389291335        6.7100598468
 H       -15.2440126636        9.4075987961        9.1250172776
 H       -14.3404607466        9.1366561514        7.6087626979
 H       -14.1699214478        8.0273734130        8.8718947742
 H       -17.8224877968        8.8225984710        8.7335407753
 H       -17.1496609826        7.1235509225        9.0454449818
 H       -18.1267498078        7.6005228087        7.5730550424
 Na       -8.0170317021        3.4738706407       -1.6391509664
