117

 C       -17.7673949287        9.6313037161        5.9997915834
 C       -16.2938525084        9.3393877490        6.2585012043
 O       -15.2635691745        9.8405488382        5.7792467334
 C       -16.1611918811        8.1901665533        7.2917648393
 C       -15.8524969178        6.8459752918        6.6726934197
 O       -16.6074568636        5.9367581100        6.7311342173
 C       -14.5239199102        6.7860603904        5.8881230640
 C       -14.3752413051        5.3405976983        5.2716616473
 C       -12.8685306539        4.7840204381        5.2610548348
 O       -11.9299681675        5.5171181584        5.4146509235
 C       -12.4294108280        3.1044907973        5.3194904784
 C       -12.6538225478        2.5002701919        3.9474099360
 O       -13.5323977178        1.7012247022        3.7510884304
 C       -11.7960678196        3.1507289443        2.7201003389
 C       -10.6284066286        2.3539934689        2.1891111423
 C       -10.0837248161        2.5751965112        0.7216313667
 O        -9.0551661458        3.1824178837        0.6245338982
 C       -11.0123449365        2.1906572160       -0.6483048308
 C       -10.0918562804        1.2336983538       -1.5536047364
 O        -9.5187940461        1.7383805705       -2.5254730079
 C        -9.7720210283       -0.1471607839       -1.0467455858
 C        -8.4274579354       -0.2250766042       -0.2112954757
 C        -7.2805767507        0.2712887234       -1.0154727389
 O        -6.9955538065        1.4738380584       -0.9886624769
 C        -6.5630101468       -0.6212753776       -2.0327859848
 C        -7.3855785910       -0.4823522522       -3.4398365707
 O        -8.0762530793       -1.4195444126       -3.7899974512
 C        -7.3709099495        0.7622414299       -4.3611278837
 C        -8.3963511149        0.6608596962       -5.4966675916
 C        -8.5954827801        1.9905524022       -6.1504789902
 O        -9.4751850358        2.7366106295       -5.9289303425
 C        -7.4124219352        2.3548866235       -7.3135355557
 C        -6.4733277110        3.3349845046       -6.4453508011
 O        -5.6275329265        2.8005077080       -5.7477942445
 C        -6.9041059469        4.8077273594       -6.2898087961
 C        -6.2138828346        5.5142157318       -5.1463747062
 C        -6.5694119099        5.1745725104       -3.6455403490
 O        -7.4830209456        4.4019461701       -3.4017973868
 C        -5.5709738668        5.8513926361       -2.5505619804
 C        -6.6444451982        6.4888350816       -1.5680789357
 O        -7.1949994272        5.7804380848       -0.7041131370
 C        -6.9267177821        8.0508066367       -1.5523539962
 C        -4.7377262851        4.6561882315       -1.8400070895
 C        -4.7234338692        6.8586617280       -3.2111983835
 C        -6.5767557464        1.1186786724       -7.7262981720
 C        -8.0064463618        3.2114596072       -8.4971015963
 C        -5.1475521514        0.0679663855       -2.3217192662
 C        -6.2824274746       -2.0489357848       -1.7639455580
 C       -12.1998224995        1.3610172795       -0.2549677840
 C       -11.3659291005        3.4484628769       -1.4194789493
 C       -10.9773546123        3.1114032542        5.8005840098
 C       -13.1176160568        2.3392945966        6.4908864596
 C       -14.9825343539        8.6255945686        8.2532251003
 C       -17.3336088720        8.0131878328        8.4053916589
 H       -18.4084705325        8.8141973087        6.3939717126
 H       -18.1588630125       10.0584722992        5.0568177096
 H       -17.9291348485       10.4799273460        6.6265463446
 H       -13.7518692204        6.9149647702        6.5886978694
 H       -14.4575827341        7.6703065063        5.2320190930
 H       -14.8335578352        5.3890528472        4.3081269356
 H       -15.0296338697        4.6440422465        5.8404247801
 H       -11.5729444971        4.1855483139        3.0403083864
 H       -12.6213772085        3.2505296735        1.9623695236
 H       -10.8258769699        1.2878097760        2.3291982671
 H        -9.7899619579        2.5745094079        2.9222423958
 H        -9.6485130166       -0.8728270974       -1.8291859259
 H       -10.4412987065       -0.5523529292       -0.3565359054
 H        -8.2579324977       -1.3250688949       -0.0441613382
 H        -8.6806560149        0.2071438923        0.7655777688
 H        -6.2954832264        0.9272900710       -4.6977427318
 H        -7.5447115120        1.7190793693       -3.8898249923
 H        -9.4531289246        0.2931041012       -5.1758687000
 H        -8.0386479405       -0.0320345599       -6.2850094078
 H        -8.0492629768        4.9550749153       -6.2685773143
 H        -6.4344975632        5.1619872874       -7.2438444086
 H        -6.3665654876        6.5819165365       -5.1872345965
 H        -5.1909074464        5.4871763854       -5.3357786638
 H        -6.1505422936        8.6030659443       -2.0461283568
 H        -7.2306829019        8.2748085048       -0.4799425707
 H        -7.9089033288        8.2117456642       -2.0007049915
 H        -4.5669412261        3.8606245939       -2.5669764546
 H        -5.2123315496        4.2637866170       -0.8926069602
 H        -3.7087217440        5.1863002587       -1.5994872743
 H        -4.2282383221        7.2936075223       -2.3457122367
 H        -5.3078415344        7.6685428166       -3.7653863944
 H        -4.1324725300        6.2109894869       -3.8379631363
 H        -5.8820815736        0.7959933533       -6.8694518754
 H        -5.7876444452        1.4435139130       -8.4662417319
 H        -7.2691882536        0.2726981183       -8.0258920699
 H        -8.5305707989        4.0560404735       -8.1298438787
 H        -8.7681688400        2.7109531767       -9.1046623327
 H        -7.3876413937        3.5556650012       -9.2518387780
 H        -5.3060750722        1.0512776055       -2.7095069338
 H        -4.4542484318       -0.5595353607       -2.9516464016
 H        -4.4351851280        0.1813465878       -1.4885913815
 H        -7.2451233383       -2.6485146720       -1.7196539101
 H        -5.9300013917       -2.1696692467       -0.7258196177
 H        -5.6149385578       -2.6100432342       -2.3607772110
 H       -11.9225615042        0.3289800975        0.0979950150
 H       -12.9288279637        1.1792407263       -1.0114912781
 H       -12.7465173117        1.9001912115        0.5392407624
 H       -10.7509448793        3.7535804663       -2.1967756784
 H       -11.6280121135        4.2500261529       -0.7187832463
 H       -12.2317999747        3.1648307201       -2.0407082113
 H       -10.6529321807        2.0829324775        5.9628708173
 H       -10.8022225142        3.8619198023        6.4546603612
 H       -10.3300628965        3.2686597622        4.8678339269
 H       -14.1445636551        1.9280489210        6.2766082429
 H       -13.2169812527        2.9681776516        7.4985872176
 H       -12.5327836513        1.5048505432        6.7222922483
 H       -15.4288981575        9.2624738574        8.9931205034
 H       -14.2658143517        9.0738116545        7.5458013447
 H       -14.5278933149        7.8577885641        8.7699217030
 H       -17.5565294088        9.0622262992        8.6699119795
 H       -16.8619219056        7.4693723928        9.2035746556
 H       -18.3228013025        7.6109654416        7.9115358276
 Na       -8.0311362042        3.4534892786       -1.5871643044
