117

 C       -17.6992269840        9.9862835559        5.9565256813
 C       -16.2767979503        9.4021825791        6.3302702859
 O       -15.3712627465        9.9026351309        5.6720372970
 C       -16.0332301524        8.3474972782        7.3824804204
 C       -15.8493377387        6.9568590209        6.6163380978
 O       -16.7058875351        6.0851494039        6.6540921283
 C       -14.4288501609        6.6291696226        5.8423000532
 C       -14.3187513228        5.1729355381        5.2766836406
 C       -12.8878833783        4.7721766615        5.3820663826
 O       -12.0398007042        5.6523435582        5.3666107926
 C       -12.3422179560        3.2544688183        5.2292877002
 C       -12.6158623444        2.5680145096        3.8409504640
 O       -13.3336128562        1.6111252533        3.6539012979
 C       -11.7309560527        3.1941785922        2.6968039895
 C       -10.6513062481        2.3211651092        2.0535497441
 C       -10.1519232523        2.6428127137        0.7003016651
 O        -9.0616846339        3.0935471394        0.5424514665
 C       -11.0682632576        2.1465466343       -0.5792331850
 C       -10.1093485576        1.2565466381       -1.4409114544
 O        -9.3578667128        1.6998803952       -2.3228966022
 C        -9.9230891855       -0.2730763367       -1.1299136003
 C        -8.5495788233       -0.3001364230       -0.3137955890
 C        -7.2484043028        0.3544750224       -1.1581794137
 O        -6.8454454059        1.4327700501       -0.8103684123
 C        -6.5922251440       -0.5893965123       -2.1365513038
 C        -7.4222264135       -0.6538189811       -3.4504516372
 O        -7.9353251846       -1.6661556177       -3.8401327269
 C        -7.4462580107        0.7576793039       -4.1142480469
 C        -8.4263010832        0.6561744172       -5.3385881810
 C        -8.5658769926        1.9897244734       -6.2010615163
 O        -9.5150905567        2.6995701351       -6.0213904646
 C        -7.3826522114        2.3035228093       -7.2391648595
 C        -6.4348977516        3.2253830171       -6.3492500412
 O        -5.5719756925        2.7913296974       -5.6681299512
 C        -6.9526418869        4.6839765855       -6.2987141521
 C        -6.4261988378        5.5542971657       -5.1738652344
 C        -6.5526871021        5.0966450214       -3.6114307737
 O        -7.3991485846        4.2902511803       -3.2919754560
 C        -5.6299112730        5.7896036455       -2.5605361351
 C        -6.7132998159        6.5070809524       -1.5158234509
 O        -7.4363716704        5.8333422525       -0.7976163170
 C        -6.7234762609        8.0218526317       -1.6552108487
 C        -4.8144049335        4.8077964121       -1.6737446825
 C        -4.7333621382        6.8643962923       -3.2723843578
 C        -6.5571780769        1.1325010857       -7.7094634919
 C        -7.9132883209        2.9088268207       -8.5185364867
 C        -5.1961371884        0.0089333187       -2.4901823999
 C        -6.4517671200       -2.0861444175       -1.6166384027
 C       -12.3898853302        1.4161502093       -0.2547235769
 C       -11.2992745099        3.5539663703       -1.3158627797
 C       -10.8558650441        3.3532859516        5.7483865642
 C       -13.2155620883        2.4227712623        6.2536918909
 C       -14.7532484616        8.5200999412        8.2168593058
 C       -17.3187775969        8.1058419832        8.3285691779
 H       -18.5699870306        9.4395567259        6.3459899212
 H       -17.8776790587       10.3278734236        4.9577464443
 H       -17.6859338496       10.9637474200        6.4218228490
 H       -13.5829051589        6.8250326433        6.5521048436
 H       -14.4381466202        7.4328314956        5.1091539792
 H       -14.7106003776        5.1222554729        4.2676560991
 H       -15.0521249658        4.5060275692        5.8478252931
 H       -11.3775424127        4.1405399823        3.1216971570
 H       -12.3984639335        3.4910429724        1.8456992330
 H       -11.0015290026        1.2869616936        2.1007455432
 H        -9.7593223796        2.3553726955        2.7367169604
 H        -9.8382291007       -0.9587047710       -1.9530123677
 H       -10.7180761773       -0.5887143017       -0.4444022756
 H        -8.1849654788       -1.3248284089        0.1711844091
 H        -8.8082773809        0.3824110381        0.4737813741
 H        -6.3972424373        0.9484424980       -4.3833478568
 H        -7.5720975026        1.6976090579       -3.4777042297
 H        -9.5033390389        0.5370228821       -5.0041321618
 H        -8.1233416135       -0.2868389940       -5.8965464244
 H        -8.1490747550        4.6412875585       -6.1318156956
 H        -6.7114675382        5.1254729456       -7.3704467949
 H        -6.9797618015        6.5236157267       -5.1358462607
 H        -5.3986449812        5.9851538334       -5.5087290577
 H        -5.8765720377        8.4082826271       -2.1771430157
 H        -7.0456295697        8.4710302512       -0.7507863612
 H        -7.6646738337        8.1557982394       -2.3431930572
 H        -4.8105879516        3.8030525949       -2.2298880589
 H        -5.3445637557        4.7420438533       -0.7762121006
 H        -3.8385091090        5.1178751781       -1.5076226653
 H        -4.3869117880        7.4154894468       -2.4470149287
 H        -5.3530497677        7.4905766788       -3.9190971335
 H        -3.9193640370        6.2638106877       -3.7913835240
 H        -5.7748477333        0.8099656251       -7.0771990491
 H        -5.9939832879        1.5619427560       -8.5743563623
 H        -7.2732152167        0.3043685003       -8.0137472734
 H        -8.5835526277        3.7534210014       -8.4032619230
 H        -8.3911194789        2.2615346647       -9.0824137270
 H        -7.1356798426        3.2335498303       -9.1911982490
 H        -5.1821778178        1.1227141240       -2.7232965860
 H        -4.6515337752       -0.6357873748       -3.2570515823
 H        -4.3677414261       -0.1547206768       -1.7004652477
 H        -7.5168985373       -2.5129732423       -1.6781392897
 H        -6.1230703120       -2.3721933523       -0.5992554335
 H        -5.8424335821       -2.7796956636       -2.2553148300
 H       -12.2418835890        0.3899802636        0.1853711679
 H       -13.0693773842        1.2194439100       -1.1023547119
 H       -13.0070608681        2.1049985352        0.4611479555
 H       -10.5935325891        3.9358276211       -2.0046138251
 H       -11.5787477172        4.1976350110       -0.5526972359
 H       -12.1820184034        3.4202302410       -2.0501795186
 H       -10.5295126775        2.3331897676        5.8148357278
 H       -10.7280883841        4.0455409570        6.6837403714
 H       -10.1529399206        3.6369246192        4.9536872872
 H       -14.2205116974        2.1454689991        6.0115995642
 H       -13.2514903355        3.0073106416        7.2243456301
 H       -12.6951766203        1.5349726761        6.4928485874
 H       -15.0006122014        9.3507552988        8.9321722007
 H       -13.8693054848        8.6047842710        7.5438752683
 H       -14.6974280795        7.7049666370        8.8890198383
 H       -17.7301414166        9.1685253551        8.4838473607
 H       -17.0201899466        7.5994335839        9.2684846691
 H       -18.0314502231        7.6742686028        7.6775792730
 Na       -8.0431948226        3.4808895659       -1.3183266681
