117

 C       -17.6103250215       10.3481334491        6.0163355599
 C       -16.2363421210        9.6130139125        6.3180488318
 O       -15.3569919001        9.8678985002        5.5728084709
 C       -15.9132546546        8.3279706975        7.4229783440
 C       -15.8494474194        6.9550356082        6.5497126452
 O       -16.8044053121        6.1760244809        6.4907378264
 C       -14.5296206668        6.5052955241        5.8336940778
 C       -14.3720852007        5.0854245428        5.3816138356
 C       -12.8729608659        4.8508492354        5.2276828622
 O       -12.0459305742        5.7314040643        5.3165834355
 C       -12.3017804715        3.3517902279        5.2779854533
 C       -12.3910815256        2.7675096807        3.8447132241
 O       -12.9687531933        1.7199800065        3.5771122611
 C       -11.7209380193        3.3772093401        2.5660549528
 C       -10.8053915793        2.0909950560        2.1079794631
 C       -10.2601418780        2.4316940871        0.7565487858
 O        -9.2030429519        3.0518193588        0.4896673259
 C       -11.1373626910        2.1519737235       -0.4564521386
 C       -10.2091430406        1.2998830658       -1.3328679122
 O        -9.3434441741        1.7853962212       -2.0273671235
 C        -9.9221261781       -0.2145880765       -1.1625721564
 C        -8.5885515917       -0.2890263586       -0.3956860296
 C        -7.2642400127        0.2364062758       -1.0844256734
 O        -6.7867791607        1.2799216561       -0.7421751353
 C        -6.6185461905       -0.6405497329       -2.1686877871
 C        -7.3732390146       -0.6960771472       -3.5034366874
 O        -7.8140859725       -1.7596118083       -3.8932567075
 C        -7.4686338913        0.5830616881       -4.2382861140
 C        -8.6221439295        0.6111759651       -5.2648859434
 C        -8.4740976849        1.8482068772       -6.1880080006
 O        -9.4162697830        2.6889188604       -6.2580461608
 C        -7.3020357417        2.1866612505       -7.1925962053
 C        -6.5664762818        3.1547338133       -6.1987754409
 O        -5.5123071603        2.8562464000       -5.6147699417
 C        -7.1193735104        4.6233551942       -6.1252190414
 C        -6.6124045364        5.5667705747       -5.0588517373
 C        -6.5547900804        5.0171623683       -3.7378560972
 O        -7.2802889455        4.1168719475       -3.3890952360
 C        -5.7708788560        5.7770761453       -2.5458018019
 C        -6.7858973329        6.5585258230       -1.7143535516
 O        -7.5736900037        5.9587267617       -1.0274277136
 C        -6.7681923571        8.0359006298       -1.6032654879
 C        -4.9509612262        4.8653592657       -1.6219076189
 C        -4.5579637927        6.8307933644       -3.2300456323
 C        -6.4611447720        0.8937913378       -7.5893455949
 C        -7.9526404350        2.7819326000       -8.4409124735
 C        -5.1795673650       -0.1696973208       -2.5275662094
 C        -6.5823513911       -2.0369165903       -1.4523361867
 C       -12.4666611995        1.6444619140       -0.2163959720
 C       -11.3119381078        3.5282405031       -1.2551406125
 C       -10.8565837811        3.4446763188        5.5786801200
 C       -13.3541893577        2.4950279007        6.1329012049
 C       -14.5657105131        8.5548304782        8.1851643302
 C       -17.2381269815        8.2303631567        8.2099840226
 H       -18.3231240569        9.6799445314        6.3937556074
 H       -17.7291927957       10.3772771191        4.9508652240
 H       -17.8818130795       11.4288419925        6.1558924925
 H       -13.6813290951        6.7922378817        6.5632494162
 H       -14.5409634280        7.2115336246        4.9911950570
 H       -14.9899829189        4.9378054785        4.4167297766
 H       -14.8997444861        4.4011122060        6.0630203899
 H       -11.0619777719        4.2661105462        2.7655526246
 H       -12.3367768182        3.6130293814        1.6929275957
 H       -11.3949774757        1.1499959775        2.2498780089
 H        -9.9574313884        2.0168452748        2.7514865333
 H        -9.6053628961       -0.7245812284       -2.0949516882
 H       -10.7649125255       -0.7778166420       -0.6382527773
 H        -8.2817045945       -1.2988126148       -0.2207938015
 H        -8.7641128161        0.2730720153        0.5948037709
 H        -6.4884385802        0.8778070363       -4.5759354599
 H        -7.5614857747        1.3895821889       -3.4700636964
 H        -9.5794762072        0.6783955068       -4.8641668970
 H        -8.5744111334       -0.3424520558       -5.8414263892
 H        -8.1647660667        4.4770387506       -5.9113573857
 H        -7.0065694419        5.1049108319       -7.1499005223
 H        -7.0143023548        6.6379176956       -4.9887286897
 H        -5.5091025492        5.8333786843       -5.3398449576
 H        -5.7017170639        8.3721509077       -1.5385197545
 H        -7.3380295541        8.2189945639       -0.7101134336
 H        -7.2396027282        8.5048478017       -2.4859304740
 H        -4.8967749071        3.8698027414       -2.0567566386
 H        -5.4467813987        4.9559984383       -0.6638287667
 H        -3.9815829203        5.1858282317       -1.4839928431
 H        -3.9896713209        7.3220245077       -2.3930172870
 H        -5.0912340438        7.5016882177       -3.7994604295
 H        -3.9297229227        6.1665127850       -3.8166978998
 H        -5.8454924573        0.4873033804       -6.8145699014
 H        -5.8281992522        1.1807265921       -8.3897339597
 H        -7.1573948854        0.2092260141       -7.9418601299
 H        -8.7893592498        3.4507677648       -8.4100483125
 H        -8.2367122544        1.9607983334       -9.2201359254
 H        -7.1833229402        3.2816642433       -9.0361915711
 H        -5.0994124483        0.9875337574       -2.4972942231
 H        -4.8187802327       -0.5569211956       -3.4768451172
 H        -4.3247247112       -0.5402099964       -1.9219999014
 H        -7.5445315110       -2.4851075712       -1.3997545969
 H        -6.1414714747       -2.1831767104       -0.4452229763
 H        -5.9391669328       -2.7875838235       -2.0425376403
 H       -12.5147503731        0.7313393581        0.3604438268
 H       -12.8621606911        1.2883476412       -1.2461548248
 H       -13.1622997823        2.4016555954        0.0973413357
 H       -10.3292490008        3.9336692944       -1.6989912119
 H       -11.7502599627        4.2170085173       -0.5280224709
 H       -11.8994510805        3.4620604711       -2.1131301019
 H       -10.3705266510        2.4717372207        5.3227696808
 H       -10.7324252876        3.8044536040        6.6956612125
 H       -10.3744351973        4.0849277570        4.8851144789
 H       -14.3337905461        2.4979549158        5.7694570528
 H       -13.4387955620        2.7766109375        7.0622379412
 H       -12.9639843993        1.4130725880        6.1589858780
 H       -14.6671904407        9.5020949858        8.7206678291
 H       -13.7645948132        8.5131228340        7.4540824842
 H       -14.4954944298        7.7897334620        9.0921303146
 H       -17.5044503621        9.2339610674        8.4473290999
 H       -17.0142990539        7.6609576317        9.1332128731
 H       -17.9223372544        7.8510643411        7.5303865945
 Na       -7.9165936446        3.5707129376       -1.0649236640
