117

 C       -16.7973649928       11.1145883258        6.3149004179
 C       -16.0098478408        9.7993055974        6.1149851903
 O       -15.4503739994        9.6394359451        5.0490539904
 C       -15.9158452880        8.6796237187        7.1922066738
 C       -15.7897394891        7.3625791299        6.3117581358
 O       -16.8881688251        6.8950663384        6.1924390932
 C       -14.5854670356        6.8552608685        5.4747523136
 C       -14.2831927901        5.3813770683        5.8059462086
 C       -12.9589265558        4.8075500982        5.1831936981
 O       -12.2485833789        5.5240158901        4.5289450616
 C       -12.4012159342        3.4529816105        5.5087299407
 C       -12.5496126415        2.7396479614        4.1203562907
 O       -13.5684779473        2.0860072512        3.8335185572
 C       -11.6390148628        3.2991655915        2.9979532356
 C       -10.6389112187        2.2279288795        2.1179282252
 C       -10.1742222655        2.6156042288        0.6949936442
 O        -9.1103782372        3.2603290538        0.7272614812
 C       -11.0229789504        2.4371413926       -0.7004272541
 C        -9.9960468539        1.6440035943       -1.5808386038
 O        -9.2389440287        2.2339470514       -2.3400281925
 C        -9.8386617344        0.1043911030       -1.3746837824
 C        -8.6626412713       -0.3438612515       -0.4336736180
 C        -7.3270661817       -0.0260939936       -1.0921283596
 O        -6.9879797966        1.1567726423       -1.0726220222
 C        -6.5944308542       -1.0602819410       -1.9306290377
 C        -7.4691900912       -0.9247023960       -3.3680023451
 O        -7.8457092401       -1.9555418036       -3.8845891233
 C        -7.7642204517        0.3706438311       -4.0539328609
 C        -8.4986221507        0.0875428258       -5.3855467987
 C        -8.5170233265        1.3750427238       -6.2151583682
 O        -9.6105954471        1.9305469562       -6.4239529565
 C        -7.2312273079        1.8951034678       -6.9660422025
 C        -6.6738488289        3.0758549744       -6.1369974115
 O        -5.5054574677        3.0166484518       -5.7134200621
 C        -7.4806330814        4.3308512918       -5.8673102293
 C        -6.6651002272        5.3010229476       -4.9547876108
 C        -6.4077843877        4.7074995176       -3.6155129857
 O        -6.9783144994        3.6901522424       -3.2339669676
 C        -5.7205910348        5.7264892191       -2.5162247689
 C        -6.8453072867        6.4699618636       -1.8057141367
 O        -7.9394453539        5.9848427789       -1.6933150741
 C        -6.8627659126        8.0511760248       -1.6931678974
 C        -5.1089515109        5.0362622226       -1.2392814813
 C        -4.6995597975        6.6163964136       -3.2385692752
 C        -6.1787072335        0.7210910086       -6.9539143094
 C        -7.6469924222        2.4442372216       -8.3809343819
 C        -5.1848123741       -0.5597614321       -2.1938898417
 C        -6.7129451464       -2.4483461247       -1.4885021427
 C       -12.3816501280        1.6337000684       -0.4345025930
 C       -11.3649740056        3.7929640283       -1.2665328270
 C       -10.8646740807        3.6667463474        5.9806469439
 C       -13.1983671216        2.8634771225        6.6045422634
 C       -14.6279053331        8.7239239709        8.0906395377
 C       -17.1262799387        8.6562177200        8.1500892474
 H       -17.6919781078       10.7877382995        5.8719760055
 H       -16.3581893843       12.0139638820        5.8920097182
 H       -17.2638220558       11.5356012256        7.2469069606
 H       -13.6920814103        7.4908582905        5.6526389999
 H       -14.8988086337        6.7967067550        4.4329218435
 H       -15.1074707718        4.6568522184        5.4359649349
 H       -14.3593112829        5.1949254683        6.8837717583
 H       -10.8010926273        3.9722886971        3.0977584067
 H       -12.4009256250        3.7657207511        2.3852593239
 H       -11.1425915745        1.2262762582        2.0923365614
 H        -9.7770817426        2.1374267972        2.7268228892
 H        -9.6299320703       -0.2967765495       -2.3568633445
 H       -10.6827320249       -0.3625466260       -0.8599704805
 H        -8.8955404520       -1.3526004934       -0.4731290723
 H        -8.5584245922        0.1246551630        0.6237607818
 H        -6.8457466403        1.0132504462       -4.0981387308
 H        -8.2882830755        1.0681696204       -3.3297985365
 H        -9.5054507625       -0.3175817582       -5.2425076813
 H        -8.0192972428       -0.7274626363       -6.0455939724
 H        -8.3898453366        4.1221996429       -5.2563358832
 H        -7.8016492571        4.9817391714       -6.7513421906
 H        -7.1678855005        6.3610844102       -4.9609263634
 H        -5.6083647644        5.5547390802       -5.3530407097
 H        -7.0648432711        8.4412610418       -0.6769232473
 H        -7.8054255234        8.3162288540       -2.1597362683
 H        -6.0147761010        8.4458443267       -2.1300208331
 H        -4.7329130135        4.1648255923       -1.4631078128
 H        -5.5223015159        5.2924308472       -0.3031932794
 H        -4.1390555393        5.5480640775       -1.1447783907
 H        -4.0553356248        7.3182312462       -2.6074309542
 H        -5.3190861124        7.0334163191       -3.9931529555
 H        -4.0016908900        5.9034481526       -3.6212910913
 H        -6.1302174728        0.6201004731       -5.8408969109
 H        -5.2842480141        0.8001707764       -7.5448678654
 H        -6.6652294707       -0.1320197585       -7.3522535397
 H        -8.4752801021        3.0686767394       -8.3040501050
 H        -8.0012175589        1.6303510364       -9.1152419697
 H        -6.8826129088        2.9301827634       -8.8802949297
 H        -5.1235181139        0.3117669117       -2.9394657692
 H        -4.3953964414       -1.3096462941       -2.5712725269
 H        -4.8769346832       -0.0473009508       -1.2033574756
 H        -7.6815158430       -2.8639066210       -1.1983958281
 H        -6.1500152583       -2.6350645002       -0.5081962196
 H        -6.2598821450       -3.1969328079       -2.1896191198
 H       -12.1854382667        0.6120400346        0.0347572668
 H       -12.8231881075        1.4591040843       -1.4997677212
 H       -13.1346484325        2.2535748645        0.0953306133
 H       -10.3760569253        4.2966638947       -1.1604844053
 H       -12.1367893464        4.3830806837       -0.7432039232
 H       -11.6497621268        3.7814704792       -2.2368707996
 H       -10.3305674857        2.6602303624        6.0509980498
 H       -10.9058708918        3.7941082879        6.9971765051
 H       -10.3646711393        4.4872826753        5.4235795656
 H       -14.1912121603        2.8354823962        6.3158831458
 H       -13.2750944086        3.4731670571        7.5115619621
 H       -12.8750019081        1.8762049391        6.8841031302
 H       -14.7078858471        9.4918743203        8.8144340148
 H       -13.7728647328        9.0796316451        7.5611057856
 H       -14.6043706366        7.6570360363        8.5437276991
 H       -17.0952262710        9.6351726761        8.5838641858
 H       -16.9130991955        7.8781199182        8.9358635311
 H       -17.9838373701        8.2425257832        7.5351489246
 Na       -7.6850790424        3.4013228642       -1.1591682082
