117

 C       -16.2148941813       11.3707343039        6.4248067772
 C       -15.8390859233        9.9662383911        6.0328636523
 O       -15.5840130492        9.8685361517        4.8517121859
 C       -15.8050500895        8.7179594418        7.0087079058
 C       -15.8348248765        7.3892652052        6.2836874636
 O       -16.8940281966        6.7858017063        5.9966239760
 C       -14.4645937598        7.0917009075        5.5288388991
 C       -14.2070287115        5.6861933271        5.9687483252
 C       -13.0558277517        5.0797327780        5.2343271197
 O       -12.6574903726        5.5911133995        4.2058664958
 C       -12.3842930005        3.6395587848        5.6215566576
 C       -12.5985285274        2.8956562695        4.3176175746
 O       -13.6206796513        2.3039508780        4.0752793906
 C       -11.7933375835        3.2873181072        2.9865644414
 C       -10.8094478469        2.2596147495        2.2004284427
 C       -10.1809365312        2.7387462498        0.9180876038
 O        -9.1939322752        3.4040272671        1.0671806383
 C       -10.9881709326        2.5059022366       -0.5422122702
 C       -10.2934493254        1.6250605609       -1.6073799532
 O        -9.6930151946        2.1954710157       -2.5273946969
 C       -10.0370602432        0.0823895018       -1.5602045379
 C        -8.7522541123       -0.1627365032       -0.7053871025
 C        -7.3663833398        0.0853969007       -1.2496363332
 O        -6.8366367819        1.1766666395       -1.0475972861
 C        -6.6772244078       -1.0875923982       -1.9952669700
 C        -7.3632431903       -1.2370769755       -3.3621938155
 O        -7.9121119756       -2.2685828367       -3.6494793623
 C        -7.5012702215        0.0132785215       -4.2225017294
 C        -8.3794521052       -0.1804474175       -5.3835718061
 C        -8.4988376896        1.1532025124       -6.2719141062
 O        -9.6127316432        1.6273219119       -6.4645971076
 C        -7.1431021671        1.7487925949       -6.9002274552
 C        -6.5434468635        2.9608480637       -6.0692679615
 O        -5.3859040601        2.8878212243       -5.7350786489
 C        -7.4791460467        4.1422427952       -5.7055241528
 C        -6.7344430344        5.2522119627       -4.9164845896
 C        -6.3393972326        4.7159685203       -3.4930216524
 O        -6.5306293135        3.5847485068       -3.1228465848
 C        -5.7724120653        5.8371431099       -2.5718304051
 C        -6.9740312394        6.4814705530       -1.8520216762
 O        -7.8808108029        5.7066854268       -1.5095268182
 C        -7.0926537529        7.9120598347       -1.8150566697
 C        -5.1067216453        5.0145174843       -1.5026753974
 C        -4.6867051310        6.6034971748       -3.2224743973
 C        -5.8672225286        0.7049647826       -7.2788187644
 C        -7.5617511206        2.2734374848       -8.3180712956
 C        -5.1639890493       -0.8088758208       -2.2918075432
 C        -6.7425342730       -2.3961572449       -1.2105250262
 C       -12.4323415134        1.8443066485       -0.2481337678
 C       -10.9955866860        3.9495761806       -1.0717067507
 C       -11.0004548467        3.6314117185        6.1590752785
 C       -13.1451057464        2.8830959663        6.6712808573
 C       -14.5806966194        8.8510757779        7.8795579143
 C       -17.1322804588        8.8459807213        7.9047993916
 H       -17.0587824591       11.8744242286        5.9270213897
 H       -15.2275269114       11.8351392291        6.3717287049
 H       -16.6499325614       11.5056393229        7.4012405966
 H       -13.6560178041        7.8086781868        5.7515365981
 H       -14.6503776263        6.9965118145        4.4312004244
 H       -14.9826143444        4.9745968346        5.9743232278
 H       -13.8708447148        5.7168919567        7.0565287478
 H       -11.1606649838        4.1939880992        3.1295340105
 H       -12.6127916246        3.5522958551        2.2853452709
 H       -11.4695248659        1.4327426400        2.1657924295
 H        -9.9421506296        1.9877298131        2.8781193708
 H       -10.0635787482       -0.1208880283       -2.6525920146
 H       -10.7635966598       -0.4397608213       -0.8928536736
 H        -8.9507531584       -1.2777364025       -0.3606395836
 H        -8.7301911038        0.4441135149        0.1455953466
 H        -6.5227192784        0.2430821761       -4.6075870008
 H        -7.6358978559        0.8735619380       -3.6391587362
 H        -9.3368853779       -0.5596924253       -5.0571042438
 H        -8.0257671862       -0.8936275372       -6.0557895162
 H        -8.3370427945        3.8821823147       -5.1668250027
 H        -7.8446029088        4.6010699424       -6.5887322625
 H        -7.4215121725        6.0095007728       -4.5872930223
 H        -6.0568160652        5.8082754004       -5.5130376786
 H        -7.6069209562        8.2486909973       -0.9388289288
 H        -7.9588024601        7.9738183734       -2.4685904361
 H        -6.1579026704        8.4611060378       -2.1575529847
 H        -4.3905039135        4.1949153493       -1.9997639222
 H        -5.8516114370        4.7998527672       -0.7034363656
 H        -4.4012942234        5.5757379479       -0.9381600847
 H        -4.2923649081        6.8537375226       -2.2822404401
 H        -4.9879927152        7.4686990647       -3.8536749269
 H        -3.8836603098        5.9328287947       -3.6816628835
 H        -5.6165702896        0.0088021287       -6.5692107437
 H        -5.0250918520        1.3602775772       -7.4121452009
 H        -6.1253264935        0.3529992347       -8.2556960311
 H        -8.4738875654        2.9638614980       -8.2695791926
 H        -7.9342029408        1.4566070807       -8.9198286678
 H        -6.7552175141        2.7985262377       -8.9593291600
 H        -4.9624306959       -0.4140268652       -3.2595942764
 H        -4.8465254605       -1.7604205145       -2.4599544035
 H        -4.6127167015       -0.3676549229       -1.5077840333
 H        -7.7521415038       -2.6661007177       -0.9557368356
 H        -6.2332952163       -2.4583737517       -0.3027411804
 H        -6.4932590796       -3.2764299643       -1.7787185923
 H       -12.3273743472        1.0551196972        0.4383496372
 H       -12.7739618855        1.4572763700       -1.1764116903
 H       -13.1321374739        2.5650092496        0.1825606374
 H        -9.9948165776        4.4093625077       -1.2602273095
 H       -11.5128190421        4.5854515121       -0.3792212162
 H       -11.6797281234        4.0075280014       -1.9829906746
 H       -10.8495968291        2.7666346725        6.7075132773
 H       -10.6791642914        4.4323276903        6.9802566058
 H       -10.4418534130        3.8157533423        5.2922605527
 H       -14.2013247358        2.5239913404        6.4055214411
 H       -13.2609680326        3.3446021369        7.5940752109
 H       -12.6817022385        1.8196633161        6.9163074564
 H       -14.4511354145        9.9136426612        8.1487772605
 H       -13.6888834150        8.8325900886        7.2558012085
 H       -14.6343296231        8.1212695444        8.6182516229
 H       -16.8610104506        9.6912509068        8.4932762464
 H       -17.3769279286        7.9175265620        8.3861143494
 H       -17.8910598675        8.8762506575        7.2772625564
 Na       -7.9771846536        3.4362902083       -1.2369782537
