117

 C       -15.7937879617       11.5608078953        6.5704907877
 C       -15.8535747159       10.1226155731        5.9298043293
 O       -15.5670982264        9.8340223278        4.8124468072
 C       -15.9162169119        8.9430120638        6.9005586270
 C       -15.8568851901        7.6165175790        6.0319016178
 O       -16.7391852006        6.7880022408        6.0281903831
 C       -14.5206626878        7.0460926883        5.5023773896
 C       -14.0853739106        5.6768168369        6.2208820827
 C       -13.0316976164        5.1003200125        5.2298819256
 O       -12.7670028991        5.6899825492        4.2194522368
 C       -12.3319816157        3.6667966387        5.4935407857
 C       -12.6596478778        2.9655997426        4.1623668447
 O       -13.5960992746        2.1384609443        4.1365508736
 C       -11.8100834172        3.4194979569        2.9572143649
 C       -10.9202505735        2.1263676288        2.3529670528
 C       -10.2674086040        2.7407995492        1.0782344411
 O        -9.1532815623        3.2866197469        1.0477702341
 C       -11.0985864882        2.6617576818       -0.3818451131
 C       -10.2555899844        1.7078445006       -1.6025367937
 O        -9.7661891628        2.1608022686       -2.6572727906
 C       -10.1989172413        0.1329630696       -1.3296798163
 C        -8.9134113858       -0.0922149574       -0.6328994444
 C        -7.3516714791        0.1424929785       -1.2890683961
 O        -6.7800632781        1.1721690244       -1.1362662790
 C        -6.6657117239       -1.1729527041       -1.9640061897
 C        -7.4052759239       -1.4376280575       -3.3313874670
 O        -7.9576707765       -2.5196579128       -3.5430448096
 C        -7.2390442861       -0.2596533967       -4.3314960655
 C        -8.2374970873       -0.3079592053       -5.4669187791
 C        -8.3012080586        1.0031189021       -6.3684197268
 O        -9.4478500611        1.5330543033       -6.4157228138
 C        -7.1346620023        1.7299434022       -7.1059445830
 C        -6.5393410468        2.8190454922       -6.1195464208
 O        -5.3699469446        2.7942451285       -5.7107023770
 C        -7.4802628876        3.9134014417       -5.6957771375
 C        -6.8533821379        5.1231792039       -4.9279664061
 C        -6.3709000773        4.6862421737       -3.5507594615
 O        -6.3518535487        3.5173485061       -3.2589401058
 C        -5.6978494851        5.6988311721       -2.4223017341
 C        -7.1118165425        6.4205918589       -1.9136620670
 O        -7.8925471586        5.7438355211       -1.2922529759
 C        -7.1989792419        7.9569789202       -1.9432245767
 C        -4.9310118356        4.7908176835       -1.4327969208
 C        -4.7090350855        6.8648943830       -3.2489241941
 C        -6.0160776007        0.7232804704       -7.3308554112
 C        -7.4437206894        2.4033554980       -8.4473846681
 C        -5.1398193290       -0.7460285561       -2.2476540042
 C        -6.8264548555       -2.3886091178       -1.0435913843
 C       -12.3931305248        1.9674799134       -0.2310561829
 C       -11.1968845586        4.1371675342       -0.8296748036
 C       -10.8380674612        3.8573847579        5.9977243475
 C       -13.3552621034        3.0046562046        6.5550096218
 C       -14.5558462777        9.0821331662        7.7481214466
 C       -17.2997477060        8.8841605357        7.8699565890
 H       -16.4986510469       12.2474132424        6.1470782408
 H       -14.7501469191       11.8956564684        6.4813400822
 H       -16.2765100713       11.6293999714        7.5923905325
 H       -13.7544006708        7.8600440423        5.3653573913
 H       -14.7148616299        6.6160498788        4.5226935979
 H       -14.8559997217        4.9594138836        6.3217859134
 H       -13.5948193480        5.7301058475        7.2101550437
 H       -11.0751957079        4.1065009912        3.4099211138
 H       -12.3072167189        3.9706519296        2.1375367852
 H       -11.7044223126        1.3540106453        2.3792575456
 H       -10.1014946088        1.8708557102        3.0362357014
 H       -10.2756660793       -0.2543935502       -2.2961922125
 H       -11.0627435378       -0.1520641377       -0.7097813229
 H        -8.9130065740       -1.1381186672       -0.2944064616
 H        -8.7789356487        0.4763151675        0.2774405134
 H        -6.2101682789       -0.3004886556       -4.6571010925
 H        -7.2071322008        0.6816251816       -3.7670261340
 H        -9.1833110435       -0.3056782936       -4.9638193393
 H        -8.2970504906       -1.2206088488       -6.1619341388
 H        -8.2513613793        3.4396540330       -5.0486816386
 H        -8.1042899229        4.2870010044       -6.6350745398
 H        -7.3409121650        6.0298957723       -4.8501591393
 H        -5.9960551401        5.3064222576       -5.5063340246
 H        -7.9069780995        8.3801700851       -1.1444987487
 H        -7.8437558436        8.1322845029       -2.7942220108
 H        -6.2023231998        8.3547618618       -2.0905571656
 H        -3.9901402045        4.5717013820       -1.8673644951
 H        -5.6262708775        3.9592497086       -1.0117036670
 H        -4.6979707875        5.3334206147       -0.4536175126
 H        -4.3386728775        7.5931557648       -2.4421739709
 H        -5.4515279780        7.3258707281       -3.8939645031
 H        -3.8617918989        6.3485409181       -3.7875585533
 H        -5.8197528708        0.1110516344       -6.3614230941
 H        -5.1247081310        1.4095549139       -7.3410662336
 H        -6.1569725927        0.1915681783       -8.2882565932
 H        -8.1529732437        3.1778765402       -8.3675619521
 H        -7.9266624882        1.6372511148       -9.2147782916
 H        -6.5924293333        2.7948926426       -8.9321948190
 H        -5.1932488033       -0.0080747566       -3.0377995388
 H        -4.6835901400       -1.5618280340       -2.7819112510
 H        -4.6637340460       -0.4990779648       -1.3284419812
 H        -7.7942288511       -2.6746726351       -1.0517158338
 H        -6.5028574315       -2.3569352287       -0.0480811579
 H        -6.4370365306       -3.2954400006       -1.4690267476
 H       -12.2704614076        1.0336771538        0.2031021936
 H       -12.9907880144        1.8993352527       -1.1634454009
 H       -12.8376145962        2.4684430945        0.5522276099
 H       -10.1596703370        4.6453240135       -0.9195246554
 H       -11.8049464792        4.7879234833       -0.1805085901
 H       -11.6962077433        4.1603171063       -1.7268810328
 H       -10.5842322091        2.9924891726        6.6493470072
 H       -10.6345699773        4.6976533061        6.6653116179
 H       -10.2906362339        4.1074361543        5.1270526106
 H       -14.4332133252        2.9487348322        6.2697200616
 H       -13.3187342767        3.4796873185        7.5347218789
 H       -13.2404946915        1.8920172911        6.8303250257
 H       -14.3794823120       10.0636086439        8.0625124246
 H       -13.7726757344        8.9523888864        7.0939306248
 H       -14.5731205302        8.2346274427        8.4962989311
 H       -16.9522595299        9.3895049375        8.7264172680
 H       -17.6607218842        7.8304623500        7.9050861335
 H       -18.1730193216        9.2501165951        7.3266853369
 Na       -8.1153678250        3.3372209555       -1.1598264698
