117

 C       -15.4865453775       11.6067948774        6.5466643085
 C       -15.7593626212       10.2230715979        5.8700944585
 O       -15.5990989047       10.0690162633        4.6602108394
 C       -15.8988365784        8.9664074693        6.8997516330
 C       -15.8518086577        7.5494988833        6.2173673014
 O       -16.8286544329        6.9031240457        6.0771558824
 C       -14.5679514413        7.0977910521        5.4334553565
 C       -13.9413463750        5.9367020020        6.2020782358
 C       -12.9939563100        5.1994802968        5.2429261393
 O       -12.6969357308        5.7241617910        4.1925214803
 C       -12.5226709448        3.8115900585        5.4752971374
 C       -12.5771718347        2.9081529894        4.1578741928
 O       -13.3781347436        2.0314499375        3.9383914701
 C       -11.7803678630        3.3959765919        2.9373769313
 C       -10.9834009726        2.2582939998        2.2751587008
 C       -10.3068886100        2.6330995849        1.0301809187
 O        -9.1110326341        3.0206622510        1.0057532518
 C       -11.1273901775        2.6028248020       -0.3634601705
 C       -10.3247833854        1.8349990424       -1.4207928382
 O        -9.8912731144        2.3360622786       -2.4281759521
 C       -10.1180055412        0.3301895855       -1.1640406948
 C        -8.7880238679       -0.0695458058       -0.4598626809
 C        -7.4848741409        0.0441044295       -1.2249251831
 O        -6.9858100266        1.1548083818       -1.2995539006
 C        -6.7964984776       -1.1294769685       -1.8759983052
 C        -7.3605596305       -1.5491822313       -3.3287247986
 O        -7.9780514419       -2.5598588911       -3.4483430896
 C        -7.0296467553       -0.5430240238       -4.4728362961
 C        -8.1393092667       -0.3942589963       -5.6549832007
 C        -8.2847875597        0.9477706875       -6.3980565160
 O        -9.3046547321        1.5443416868       -6.4585154604
 C        -6.9746660887        1.6600690147       -7.1934230170
 C        -6.5731123078        2.7070067838       -6.1133227517
 O        -5.4309629878        2.7199446885       -5.7483151048
 C        -7.5285869806        3.8288782391       -5.6334037959
 C        -6.8301967520        4.9735738891       -4.9904748108
 C        -6.2178423720        4.5783751429       -3.6556339180
 O        -6.3871074681        3.4289246604       -3.2130917507
 C        -5.8032043543        5.5883208087       -2.4672495785
 C        -6.9426135337        6.3336899441       -1.7760587659
 O        -7.8204835096        5.7585087049       -1.1885984109
 C        -7.3224948172        7.8920274614       -2.0450911954
 C        -4.8610469229        4.9127824865       -1.4473233585
 C        -4.9749035443        6.8040436008       -3.1348060709
 C        -5.9124565424        0.5491806045       -7.5046264159
 C        -7.4507721427        2.4294263262       -8.4432174138
 C        -5.2539802517       -0.7671049114       -2.0463050987
 C        -6.7980144176       -2.3281166235       -0.9266210941
 C       -12.5338845433        2.1127271715       -0.2267171945
 C       -11.3403746188        4.1743064978       -0.6893369086
 C       -11.0456590282        3.9672527798        5.7863980372
 C       -13.3258929056        3.0511023099        6.6251640491
 C       -14.7424172134        9.1814845971        7.8169829016
 C       -17.1748076611        8.9782859904        7.7248825940
 H       -16.0604980395       12.3011648911        5.8949122767
 H       -14.4191692643       11.9020874733        6.4922866480
 H       -16.0656568706       11.7619572771        7.4408394705
 H       -13.9652197285        8.0108962911        5.4599615840
 H       -14.6935157499        6.7780136646        4.3643364997
 H       -14.6646841826        5.1388718248        6.5672779357
 H       -13.4226202581        6.3039822557        7.0677415245
 H       -11.2557636515        4.3512625670        3.1130193828
 H       -12.5436739567        3.6441324708        2.2091139338
 H       -11.8039070373        1.4602002074        2.3195218463
 H       -10.1575460897        1.9726957085        2.8897832485
 H       -10.2055742545       -0.0653165840       -2.1730712371
 H       -11.0184548956        0.0202797385       -0.6571553276
 H        -8.8334819385       -1.0438127690       -0.1478594075
 H        -8.5100891989        0.4825572644        0.4872351132
 H        -6.0406621174       -0.8255703640       -4.9412704516
 H        -6.7271864798        0.3988704680       -3.9255741983
 H        -9.1530670255       -0.6676809560       -5.2660970955
 H        -7.9652732612       -1.1200471139       -6.5263561858
 H        -8.2584978090        3.4222370479       -4.8067072142
 H        -8.2203819998        4.1758990044       -6.4609881595
 H        -7.3781685718        5.9206065055       -4.6520960887
 H        -6.0878735877        5.2526589444       -5.7431500871
 H        -8.2661551754        8.1708673786       -1.5581162828
 H        -7.5949051767        8.0353890680       -3.1189233062
 H        -6.4528743610        8.4504846568       -1.8081966522
 H        -3.8502443649        5.0971071855       -1.6414538886
 H        -5.1618725950        3.8630215207       -1.3852962302
 H        -5.0899512964        5.2455411143       -0.3878995863
 H        -4.7607266306        7.6482569953       -2.3760840151
 H        -5.5831770164        7.1504176547       -3.9920832033
 H        -4.1389249455        6.2911111214       -3.4903199017
 H        -5.6842192621        0.0662977776       -6.5086785153
 H        -4.9094768513        1.0048551626       -7.8089607981
 H        -6.4240375673       -0.1240470452       -8.2980251752
 H        -8.1524342048        3.2137214308       -8.2078986237
 H        -7.8709424857        1.8227932751       -9.2080638445
 H        -6.6289028124        2.9207239948       -8.8863138912
 H        -5.2614350739        0.2597940219       -2.4094542189
 H        -4.7843488568       -1.3396536468       -2.9616453210
 H        -4.7868951802       -0.9684257678       -1.0300557191
 H        -7.6518634465       -3.0383885317       -1.0133038853
 H        -6.5933541576       -2.1389147250        0.1267134549
 H        -6.0539199358       -2.9922058564       -1.2322773168
 H       -12.7580756384        1.0345207954       -0.0841981769
 H       -13.0364016853        2.4437943753       -1.1191211615
 H       -12.8802448238        2.5290307137        0.7298731171
 H       -10.5554485139        4.8259293507       -0.6086952324
 H       -12.1050368104        4.5563572208        0.0222261365
 H       -11.8124902845        4.2458244767       -1.6655259921
 H       -10.6659503115        3.0460723032        6.3041594303
 H       -10.8578308346        4.7224886721        6.4321599657
 H       -10.5755852484        4.4583495980        4.8928937968
 H       -14.3560760200        2.9190794569        6.5024444857
 H       -13.1400457915        3.4083937778        7.7275122298
 H       -13.0644516847        2.1021437522        6.6679959330
 H       -14.8749798245       10.0692590699        8.4064338876
 H       -13.8901414930        9.3612293327        7.1368103463
 H       -14.5638792151        8.2494243446        8.3593303349
 H       -16.8789788663        9.1899494023        8.7576753708
 H       -17.7096949693        8.0861597290        7.4305487631
 H       -17.9829995996        9.6478513467        7.1804133150
 Na       -8.1006386288        3.2451890024       -1.1146253698
