117

 C       -14.5937044849       11.8918443249        6.2112812409
 C       -15.3383092841       10.5330580840        5.7352206792
 O       -15.8038312563       10.3614443379        4.5960741809
 C       -15.7889121593        9.3636576026        6.9165504742
 C       -15.8500389459        7.9310585340        6.2322394924
 O       -16.7795439347        7.1318685016        6.3252414097
 C       -14.6257573920        7.6125576353        5.3016316715
 C       -14.1020650083        6.2968003931        5.8037896789
 C       -13.1062813533        5.5512294689        4.9567508728
 O       -12.6464064575        5.9857848217        3.9085880715
 C       -12.5465686962        4.1434571677        5.4442591381
 C       -12.5981389555        3.1044114796        4.2596799235
 O       -12.9982277790        1.9985929943        4.4505930260
 C       -11.7831749226        3.5011915656        2.9425264600
 C       -11.0498671204        2.2067118948        2.4742504938
 C       -10.2703178547        2.5067245713        1.0224022263
 O        -9.0363027209        2.5773414470        0.9608125641
 C       -11.2475149746        2.6856919814       -0.2933875913
 C       -10.4961394859        1.9017984357       -1.3455585828
 O        -9.7948374487        2.4824125457       -2.1017847439
 C       -10.4813857687        0.3898892564       -1.3086020426
 C        -9.1835210896       -0.2128474049       -0.8493755921
 C        -7.8456499109        0.0179943264       -1.6095227615
 O        -7.5376856186        1.1041344348       -2.1044028923
 C        -6.9389193637       -1.1815805385       -1.8426227398
 C        -7.4485826173       -1.4764787749       -3.3267898082
 O        -8.4262266999       -2.1114615401       -3.5922760381
 C        -6.7048621043       -0.6478294075       -4.3562823755
 C        -7.3225614145       -0.9488112213       -5.7698157443
 C        -7.8667376919        0.3835600617       -6.2577096327
 O        -8.9248028133        0.8254623123       -6.1045682814
 C        -6.8588197614        1.2151517893       -7.1337729243
 C        -6.2903026333        2.3258997154       -6.0910625767
 O        -5.1066247731        2.2411898386       -5.9173632505
 C        -7.2753586405        3.4002303822       -5.6183908827
 C        -6.5379511059        4.6177926409       -4.9691145831
 C        -6.3902316961        4.4346984695       -3.5017390973
 O        -6.5998892881        3.3498606670       -2.9771722439
 C        -5.8884435979        5.7082806318       -2.5561121312
 C        -7.2303212329        6.1495885856       -1.8017827114
 O        -7.6943949557        5.5779809598       -0.8395749767
 C        -7.8585240691        7.5256075733       -2.2093646822
 C        -4.8049266030        5.0897413243       -1.6139653741
 C        -5.1469622110        6.7668974849       -3.4390410858
 C        -5.6756533978        0.3650950713       -7.7284840474
 C        -7.6578495371        1.9262288542       -8.3131610362
 C        -5.4229019547       -0.6771835948       -1.7177345530
 C        -7.0831196335       -2.4369493682       -0.9258373506
 C       -12.6692656171        2.0690298655       -0.0628177261
 C       -11.5327031560        4.1573567625       -0.4755540666
 C       -11.0853950853        4.1598957025        5.9095598420
 C       -13.5095692117        3.7510835583        6.5040867829
 C       -14.9614724319        9.3432815298        8.2004135823
 C       -17.2917863787        9.7614147537        7.3327175814
 H       -14.0894665275       12.4134063684        5.3377500865
 H       -13.6945210269       11.8066078915        6.8166054000
 H       -15.4452099979       12.3917446670        6.6380488836
 H       -13.9448149106        8.4451657430        5.2922831905
 H       -15.1221208136        7.7610741339        4.3501466598
 H       -15.0244462576        5.6477708783        5.8643062926
 H       -13.6325813368        6.3418116527        6.7292619868
 H       -11.2260610433        4.4436563666        3.0293656822
 H       -12.4962806832        3.7087198062        2.1726654091
 H       -11.6300794311        1.2778612265        2.2270383818
 H       -10.4216083145        1.9593572281        3.3070646771
 H       -10.8437651075        0.0441678455       -2.2558905149
 H       -11.2927907128        0.0547257003       -0.7528098620
 H        -9.2560420360       -1.2682312978       -0.8151165502
 H        -9.0697564285        0.0435021148        0.2335602010
 H        -5.6170059060       -0.8137146850       -4.2867498936
 H        -7.0126202061        0.3784366112       -4.0927745215
 H        -8.2297120443       -1.6164437437       -5.7037215885
 H        -6.6059742967       -1.2647776431       -6.5308820817
 H        -8.1802445107        2.9714937223       -4.9276449255
 H        -7.9294220623        3.8101806004       -6.4604427583
 H        -6.9972822044        5.5429053419       -5.2626090176
 H        -5.5160905927        4.5264815573       -5.2209904460
 H        -8.8577302049        7.3784777937       -2.5556301415
 H        -7.3208667641        8.0225800754       -3.0866686003
 H        -7.7027500359        8.0968545563       -1.2835598580
 H        -4.2729473362        6.0518490270       -1.1728297743
 H        -3.9568286115        4.5356575326       -2.0193743674
 H        -5.3251034573        4.7717436707       -0.7218658895
 H        -4.8605402055        7.4631135320       -2.6406372751
 H        -5.6479430912        7.4670908340       -4.1695246106
 H        -4.3226465086        6.2251286975       -3.8854710553
 H        -5.0425444873       -0.0933522238       -6.9656957422
 H        -4.9875997521        1.0365516941       -8.3286674692
 H        -6.2385293253       -0.5450631279       -8.1596869397
 H        -8.6931538658        2.1492126844       -7.9372629717
 H        -7.7439190346        1.2143023318       -9.0177456745
 H        -7.2815646836        2.8950669057       -8.7087007469
 H        -5.3205426470        0.0924169884       -2.4455409117
 H        -4.7968960708       -1.5838779325       -1.7424226900
 H        -5.3018399284       -0.1898002624       -0.7529180792
 H        -8.0778651380       -2.8906445942       -0.8923883387
 H        -6.7219069277       -2.3915668676        0.0630407114
 H        -6.4669273026       -3.1223910316       -1.3882545493
 H       -12.7803992971        1.3396437341        0.6951484456
 H       -13.0487635335        1.7037338208       -0.9391284428
 H       -13.2679202090        2.9137324400        0.3207726515
 H       -10.7026505191        4.7030683594       -0.7481021881
 H       -11.9132490241        4.6512051839        0.4212532248
 H       -12.2150416894        4.2114427302       -1.3807464326
 H       -10.7681926976        3.1400905594        5.9204911734
 H       -11.1707696900        4.6317932324        6.9131526213
 H       -10.3255477197        4.8119627267        5.3880090855
 H       -14.4701438620        3.5659323548        5.9879918579
 H       -13.5881006717        4.2817591750        7.4338424977
 H       -13.3613662155        2.7473303814        6.9093240616
 H       -14.8380630065       10.3702983336        8.5119708237
 H       -14.1614742924        8.6188024250        8.1256101147
 H       -15.5493918307        9.0183777314        8.9715580101
 H       -17.9240384712        8.7689770483        7.3009278462
 H       -17.7058349593       10.5034944279        6.6463059542
 H       -17.2284226365       10.0717613606        8.4226906482
 Na       -7.7117172039        3.0941822991       -0.6209152890
