117

 C       -14.0828555416       11.6221374209        6.0300709478
 C       -15.2201625648       10.7199540557        5.6848624776
 O       -15.6295771835       10.6119500158        4.5027545409
 C       -15.8580671110        9.8853089752        6.7419102294
 C       -15.7911636486        8.3249031117        6.2243158629
 O       -16.5798500829        7.5156983915        6.6182273951
 C       -14.6275743164        7.9226457954        5.4085582165
 C       -14.5427669284        6.3659360612        5.5002912048
 C       -13.2222884232        5.6922753078        5.0247411031
 O       -12.6767015291        5.9981534944        3.9886124585
 C       -12.6155947334        4.4530449810        5.6466072200
 C       -12.4807467897        3.1802786270        4.5602839686
 O       -13.1295800436        2.1932365181        4.7276605991
 C       -11.6498120960        3.5144581506        3.1906734113
 C       -11.0716623070        2.2367776431        2.5431682514
 C       -10.3430834193        2.5769425436        1.2211372124
 O        -9.1439295159        2.8446984312        1.1777729668
 C       -11.0877005399        2.4573814052       -0.0413476096
 C       -10.3530375582        1.8528213590       -1.3969028337
 O        -9.8451778859        2.6685512541       -2.1554723968
 C       -10.5810100990        0.4552571658       -1.9917104438
 C        -9.7161953864       -0.5928078712       -1.2667674175
 C        -8.1088436418       -0.2070495407       -1.3302631960
 O        -7.7873190971        0.9634035370       -1.3008770903
 C        -7.1582171310       -1.3609043294       -1.7661803021
 C        -7.4507551540       -1.6827149252       -3.2879807253
 O        -8.4811709496       -2.2167537124       -3.6084731200
 C        -6.3107613513       -1.4200836322       -4.3744995536
 C        -6.9854323151       -1.3413835851       -5.8755040540
 C        -7.5014440270       -0.0034687876       -6.3943391831
 O        -8.5542349416        0.3828561687       -6.0495364076
 C        -6.7375975009        1.0674711232       -7.2534438789
 C        -6.1822444667        2.0643759339       -6.2123655177
 O        -5.0322088710        1.9795337661       -5.9569992681
 C        -7.0333641592        3.2585490093       -5.7004186994
 C        -6.2971302445        4.4684227988       -5.0562968104
 C        -6.3355920387        4.4284896918       -3.5650933983
 O        -6.8463490937        3.5182087342       -2.9114196140
 C        -5.9612288078        5.7143019123       -2.6791547658
 C        -7.2024986445        6.1822666024       -1.8700170363
 O        -7.6141238550        5.3711133912       -1.0361208920
 C        -8.1597798934        7.3036152868       -2.1553088800
 C        -4.8953134565        5.3322298368       -1.5815940252
 C        -5.2849816662        6.7923217029       -3.4544393668
 C        -5.5305647596        0.4830742039       -8.0165772323
 C        -7.7232486553        1.6131916770       -8.3103695760
 C        -5.6003734744       -0.7225260630       -1.5541993403
 C        -7.4157958502       -2.6569555177       -0.9843454635
 C       -12.5402384526        1.9848726420        0.0165423993
 C       -11.2798348823        3.9805410744       -0.3758087675
 C       -11.2558547134        4.9729572560        6.0850712972
 C       -13.5263528165        3.7486761798        6.6672777214
 C       -15.1735427443        9.8293294132        8.1909113992
 C       -17.3175573646       10.2915394628        7.0240816580
 H       -13.5913124360       12.1183919182        5.1948983122
 H       -13.1732731779       11.1399931570        6.4028410506
 H       -14.4149428868       12.1649384180        6.8972251779
 H       -13.7540787839        8.4594363005        5.8693724905
 H       -14.6350053356        8.2959946107        4.3921171196
 H       -15.3364392184        5.8798913142        4.8837954882
 H       -14.5310732187        6.0112210829        6.5419464021
 H       -10.9608732753        4.3056216325        3.4652808818
 H       -12.3778282033        4.0380333554        2.5000957970
 H       -11.8519762515        1.4420032070        2.5608837966
 H       -10.2754321068        1.8795982510        3.1691084862
 H       -10.3687784583        0.3778009863       -3.0848476768
 H       -11.5716645925       -0.0325422522       -2.0155722941
 H       -10.0724040466       -1.5135699147       -1.5495228945
 H       -10.0250232715       -0.5207358742       -0.1513502342
 H        -5.7512070725       -2.3137792701       -4.3862732144
 H        -5.7733563869       -0.4954510600       -4.1874909718
 H        -7.8419764634       -1.9292284405       -5.8557906998
 H        -6.2249271782       -1.7271652700       -6.5491745943
 H        -7.8098818068        2.8687459496       -5.0117963074
 H        -7.6841239738        3.6888929598       -6.4069358466
 H        -6.7728925580        5.4282356368       -5.3111678042
 H        -5.2663611756        4.3893010205       -5.3373225272
 H        -8.9428415561        6.7010706578       -2.6246503456
 H        -7.7225441472        8.0635444495       -2.8524602500
 H        -8.5211113084        7.6914327695       -1.2488704095
 H        -5.0421879544        5.6548310669       -0.4928213633
 H        -3.9725517772        5.8126901227       -1.7942190487
 H        -4.9650958572        4.2437866006       -1.4245522860
 H        -5.1350887000        7.8613061595       -3.0542687854
 H        -5.9229090564        6.9294509288       -4.3803219790
 H        -4.4689005431        6.2902635549       -3.8914155318
 H        -4.7754795352        0.2968596379       -7.3802028769
 H        -5.3224812337        1.2577674505       -8.6941873479
 H        -5.7586100206       -0.4487453390       -8.5326390702
 H        -8.5772137993        2.2036313407       -7.7893999269
 H        -8.1066133342        0.8391757617       -8.8713632451
 H        -7.0895304412        2.3591777134       -8.8977221438
 H        -5.6748427361        0.2813354648       -1.7435922543
 H        -4.8941538710       -1.3633801832       -2.1101263960
 H        -5.2829376442       -0.7946745896       -0.5300607117
 H        -8.3069952905       -3.2439528091       -1.4292204725
 H        -7.7539038329       -2.3869831360        0.0667383236
 H        -6.5303738641       -3.2702721613       -0.9046719537
 H       -12.5054374524        0.8627255619       -0.1516280702
 H       -13.2007166865        2.5169540093       -0.6839920747
 H       -12.9630649295        2.2315593081        1.0177591693
 H       -10.3592512819        4.4783907620       -0.3209754711
 H       -11.9891097150        4.3632277079        0.4557739829
 H       -11.7441170668        4.2930735129       -1.3588694151
 H       -10.9056941828        4.2914519767        6.8626885773
 H       -11.1659503860        5.9828780815        6.3294635091
 H       -10.5811549888        4.5546246691        5.3051016111
 H       -14.5344667713        3.5478148389        6.1766156679
 H       -13.8065888762        4.3689237259        7.5452662931
 H       -13.2365942804        2.7312472705        6.9919040334
 H       -15.6202709438       10.4690298604        8.9559351977
 H       -14.0569386694        9.7964621247        8.1241656724
 H       -15.4205529276        8.8332235851        8.6001086679
 H       -17.7394906094       10.7617207098        6.1744801699
 H       -17.3202763431       11.1030076535        7.6356568457
 H       -17.8053683764        9.3988825049        7.4090132517
 Na       -7.7850294629        3.1753975358       -0.9520787569
