117

 C       -13.6128393715       11.6072706472        5.9086694612
 C       -14.9184213503       10.8778309798        5.5513685280
 O       -15.3278668341       11.0248964327        4.3960167220
 C       -15.7448679691       10.0950249203        6.6081866523
 C       -15.9054350628        8.5101451905        6.3589593967
 O       -16.9238562782        8.0580868585        6.7940782777
 C       -14.6675834743        7.7700537807        5.8079168238
 C       -14.7697421490        6.3996927945        5.3000052043
 C       -13.4368797539        5.7132884032        4.8671609391
 O       -12.9985343642        6.3256588004        3.9215125589
 C       -12.5930363816        4.5328373082        5.6688611414
 C       -12.2866453982        3.4376094682        4.5472627518
 O       -12.7541137815        2.3325277663        4.6324041849
 C       -11.2847579468        3.7525486394        3.3666310166
 C       -10.8855929792        2.4102217587        2.7205180027
 C       -10.3206182369        2.4899596262        1.2500029974
 O        -9.1646073139        2.5066030652        0.9882936504
 C       -11.3382425284        2.6696663659       -0.0848329402
 C       -10.6002144713        2.1132649525       -1.3688777635
 O        -9.9235212458        2.9413145716       -2.0346731652
 C       -10.7597087351        0.7438925523       -1.9960252958
 C        -9.8433511660       -0.6059251232       -1.6383135545
 C        -8.3130176347       -0.3685060738       -1.2274611092
 O        -7.9753944332        0.3214520642       -0.3169602127
 C        -7.2907422552       -1.4221733289       -1.8276630783
 C        -7.5649765504       -1.7589958591       -3.3871060142
 O        -8.5327916960       -2.3350377019       -3.8215003878
 C        -6.2287323097       -1.7630185577       -4.3023271665
 C        -6.4129274603       -1.6547618047       -5.8537771554
 C        -7.1327704270       -0.3206461292       -6.1654613996
 O        -8.1578747355       -0.0022918765       -5.5919751676
 C        -6.6113843219        0.8012788815       -7.1168526704
 C        -5.9626063211        1.9219434848       -6.1614777269
 O        -4.8144303911        1.8699938522       -5.9186769841
 C        -6.7451892933        3.2189682007       -5.8958141509
 C        -6.0524458685        4.2118128330       -5.0547087637
 C        -6.4703974347        4.2260210822       -3.6102496297
 O        -6.9212318240        3.2736286177       -3.0208634975
 C        -6.1273742276        5.6321400967       -2.7713166955
 C        -7.4371820492        6.1058165427       -2.0362389149
 O        -7.7106738001        5.5509759763       -0.9352911896
 C        -8.2285931621        7.4342982482       -2.4957282443
 C        -5.0117298341        5.1574260793       -1.8118815581
 C        -5.7371434074        6.8336606936       -3.7424750528
 C        -5.5162160872        0.2887659015       -8.0196700661
 C        -7.6895274138        1.5394154308       -8.0627876704
 C        -5.7859049042       -1.1189387906       -1.5835431308
 C        -7.7507178496       -2.7954322547       -1.0939062153
 C       -12.6368372230        1.8023453721        0.2530203462
 C       -11.6060567839        4.0951382051       -0.3163176161
 C       -11.1745016839        5.1280302373        6.0655028605
 C       -13.4329272531        3.9697147393        6.7064208370
 C       -15.1020089644       10.3810678326        8.0641481927
 C       -17.2370602947       10.6802598331        6.4405728569
 H       -13.7763317167       12.6196188482        5.6201397265
 H       -12.7147432129       11.4476471954        5.2762309242
 H       -13.0979906898       11.4029790532        6.8604879935
 H       -13.9707386040        7.6858904931        6.6680424753
 H       -14.1791103347        8.3861188287        5.0702462939
 H       -15.1825352489        6.2756938953        4.3245531497
 H       -15.2224909138        5.6767636227        6.0498569393
 H       -10.3883458644        4.0129937120        3.9048643785
 H       -11.6879120061        4.6808940847        2.9184064221
 H       -11.8080528556        1.8241614523        2.6656446280
 H       -10.1966652423        1.8606587962        3.3977001382
 H       -10.4107252630        0.8488966497       -3.0165652997
 H       -11.8601767945        0.3832843244       -2.0118561704
 H        -9.9555755482       -1.3693470653       -2.4157614742
 H       -10.2777935427       -0.9681293014       -0.6941333527
 H        -5.7118946185       -2.7160427920       -4.0481907171
 H        -5.7366893238       -0.7738069084       -4.0635146660
 H        -7.0646107466       -2.4519436876       -6.2469476512
 H        -5.3705746201       -1.7310614718       -6.3581284897
 H        -7.6882740917        3.1360822702       -5.4882775856
 H        -6.9652985432        3.6504436495       -6.8640003723
 H        -6.2720328685        5.3034355810       -5.3482946311
 H        -4.9403245633        3.7899370487       -4.9640806839
 H        -8.3818722083        7.2307495980       -3.6020965431
 H        -7.4254624897        8.1696039896       -2.3440144883
 H        -9.1894944124        7.5871089689       -2.0894015157
 H        -4.4754877539        5.9302087976       -1.3303028339
 H        -4.2653287905        4.8251013816       -2.4608968292
 H        -5.3812724422        4.4778284755       -1.0180628796
 H        -5.6352501009        7.8831732016       -3.1572993887
 H        -6.4853054338        6.8603467935       -4.5341103309
 H        -4.7371290167        6.8449340265       -4.1714266670
 H        -4.7108614332       -0.0790891866       -7.3620211866
 H        -5.3246015054        0.9729388515       -8.9044661430
 H        -5.9782571048       -0.5875823679       -8.6188836773
 H        -8.6517942310        1.8421973999       -7.6287568201
 H        -7.8706158331        0.8584401349       -8.8293554956
 H        -7.0868878972        2.2747266412       -8.5321274776
 H        -5.5860427266       -0.3848566369       -2.3504684689
 H        -5.2362880194       -2.1545749551       -1.5195544971
 H        -5.7526451908       -0.5712493760       -0.5646037565
 H        -8.8038768797       -3.0602189912       -1.1517561173
 H        -7.4441820428       -2.6075898832       -0.0715004583
 H        -7.1888744471       -3.5830095064       -1.5107241163
 H       -12.3054447299        0.8824048969        0.7218597845
 H       -13.0878256595        1.6026718004       -0.7235978763
 H       -13.4327553430        2.3517150194        0.6574151501
 H       -10.7552216492        4.6811009310       -0.4116604166
 H       -12.4137398356        4.4342263475        0.3525196460
 H       -12.1088571757        4.1726946562       -1.2414152302
 H       -10.2058351952        4.5112478538        6.0495277605
 H       -11.3461265934        5.4352943119        6.9965902483
 H       -11.0774709354        5.9518037126        5.2920297500
 H       -14.4432032822        3.8489006137        6.2716945664
 H       -13.6216131962        4.7466979904        7.4916086589
 H       -13.0401540823        3.0798154422        7.1175350171
 H       -14.8335090949       11.4030693758        8.0341047545
 H       -14.1448707179        9.8908484248        8.1077249924
 H       -15.6323612852       10.1321935878        9.0499845198
 H       -17.2463019794       11.7447697064        6.3272533583
 H       -17.7810197719       10.6231367513        7.4136972309
 H       -17.8888608251        9.9867538600        5.7772620386
 Na       -7.9598823688        3.1002763291       -0.7293063330
