117

 C       -13.4875546406       11.4560462392        5.8694187224
 C       -14.8032782567       10.9163200976        5.3997301590
 O       -15.2171153585       11.0287831540        4.2355719172
 C       -15.6752402890       10.2098731092        6.5470732400
 C       -15.8384271534        8.6558690940        6.4751125249
 O       -16.8812428865        8.0877200352        6.6628762157
 C       -14.5591442604        7.8296981635        6.0213117494
 C       -14.8972619646        6.3713853680        5.4163423643
 C       -13.4845432294        5.8572488475        4.8317270906
 O       -12.8494679008        6.2495496689        3.8487233689
 C       -12.7278610296        4.6992836672        5.5512920546
 C       -12.2630990627        3.5557713483        4.4948745637
 O       -12.7056844136        2.4813181589        4.7099185243
 C       -11.1290055057        3.8315720250        3.3966259430
 C       -10.9454220038        2.4989873562        2.5893614374
 C       -10.3394883636        2.5634586938        1.1717876203
 O        -9.1182908439        2.4623741277        1.1449908279
 C       -11.4232091489        2.5470933190       -0.0708063612
 C       -10.6294757062        2.0471761307       -1.3892112939
 O       -10.0394805316        3.0072119162       -1.8761520700
 C       -10.6936449654        0.6954065991       -2.0769620405
 C        -9.9319450636       -0.5277586762       -1.6738391529
 C        -8.4153483340       -0.4838323376       -1.2497815820
 O        -8.0034380774        0.3095177598       -0.3909024987
 C        -7.3701490610       -1.5528662337       -1.8644850205
 C        -7.4780607847       -1.8401237142       -3.4364929010
 O        -8.5571053530       -2.1970226648       -3.8645804902
 C        -6.1543848045       -1.6891231345       -4.2400307467
 C        -6.4439250347       -1.7090843116       -5.7408945952
 C        -7.1676568270       -0.3369498465       -6.0585964816
 O        -8.0488089403       -0.0886548831       -5.3277795076
 C        -6.5010364587        0.7562289986       -7.2276973006
 C        -5.8475861942        1.8474490992       -6.3311925563
 O        -4.7294094740        1.7463414316       -5.8712699322
 C        -6.7204978926        3.1233002464       -5.9625709515
 C        -6.0211396846        4.1252894922       -5.0044531767
 C        -6.5571871521        4.2708824246       -3.6079035155
 O        -6.9451768537        3.3732928686       -2.9380719139
 C        -6.2382978718        5.6261684235       -2.8487040598
 C        -7.4564421512        6.1193524042       -1.9905816177
 O        -7.8611556541        5.5489072501       -1.0082446714
 C        -8.2590120148        7.2933266667       -2.4411396251
 C        -5.1156762863        5.1482856677       -1.9510719624
 C        -5.6929299166        6.7555529785       -3.7623986330
 C        -5.3743098403        0.1967539277       -8.0360580111
 C        -7.7289544918        1.3697117799       -7.9458911369
 C        -6.0080885744       -1.1627003893       -1.4599079735
 C        -7.8061790468       -2.8365366476       -1.1288281526
 C       -12.7291645905        1.8175990305        0.3950295157
 C       -11.7822121636        4.0874315202       -0.2570921748
 C       -11.2841491831        5.3525828664        5.9174543695
 C       -13.4614867255        3.8739253518        6.6769968912
 C       -15.2827910837       10.5475831472        7.9803171578
 C       -17.1080920100       10.7843620033        6.4810146088
 H       -13.6496373894       12.5321321008        6.1534313864
 H       -12.7054939858       11.6125743985        5.1364052165
 H       -12.9684559715       10.8461066966        6.5220645006
 H       -13.7659791635        7.7926373041        6.7927800474
 H       -14.1768895588        8.3394625825        5.1352199888
 H       -15.5764581530        6.4486822787        4.5230847841
 H       -15.1739128386        5.6076062730        6.1178739299
 H       -10.1457633487        4.2464140987        3.6405908722
 H       -11.7391401646        4.6115431790        2.8727755103
 H       -11.9544713825        2.0240894024        2.5668940713
 H       -10.2750039883        1.8143560927        3.0735861141
 H       -10.2411085430        0.8391995069       -3.1321184940
 H       -11.7802430805        0.4214292862       -2.1290195825
 H       -10.0286257682       -1.2253501715       -2.4257551736
 H       -10.5226131585       -0.8353056496       -0.7355118347
 H        -5.5946252352       -2.6011309738       -3.9758830991
 H        -5.6723506348       -0.7093606808       -3.9835661392
 H        -7.0888278459       -2.5344213788       -5.9985131830
 H        -5.4712218492       -1.8586761000       -6.2558094243
 H        -7.6506868111        2.8861564159       -5.4637089533
 H        -7.0085337992        3.5973159351       -6.8000830633
 H        -5.9831594872        5.1739037082       -5.3738581019
 H        -5.0507172983        3.6096586624       -4.6590508372
 H        -8.0558780163        7.2908703129       -3.4885164551
 H        -7.7986586802        8.1651242588       -1.9318676748
 H        -9.3197430865        7.1301483333       -2.3982096303
 H        -4.3377788609        6.0040696316       -1.8345541761
 H        -4.5520090954        4.3474445908       -2.4017713554
 H        -5.4818028776        4.9137744314       -0.9899748856
 H        -5.5870400637        7.6529310926       -3.2300885270
 H        -6.0684161572        6.9343067988       -4.8386113914
 H        -4.6175522066        6.6443829163       -3.7818106462
 H        -4.5741139213       -0.0233356534       -7.3650378921
 H        -5.1587053622        0.8804584850       -8.8547515789
 H        -5.7336108867       -0.6653375094       -8.6212987637
 H        -8.4821589213        1.7184922663       -7.2163413087
 H        -8.1490113918        0.5873074668       -8.4721838089
 H        -7.3548753403        2.0923581343       -8.6938867077
 H        -5.7137700831       -0.3997534566       -2.2289507395
 H        -5.4918343928       -2.1361487512       -1.4927450562
 H        -6.0066366779       -0.7597043207       -0.3964073490
 H        -8.9283742622       -3.0406274351       -1.0245740499
 H        -7.3162646590       -2.7241794232       -0.1456654876
 H        -7.4067796457       -3.6723533556       -1.6602253978
 H       -12.5764502403        0.7377379328        0.6791933621
 H       -13.3182584409        1.9344783925       -0.5012364649
 H       -13.3981414330        2.4797666420        1.0524588839
 H       -10.9476486218        4.5537075164       -0.6806641966
 H       -12.2293199094        4.5877251528        0.5828271343
 H       -12.6262604592        4.1707756739       -1.0388184572
 H       -10.6061311904        4.5365972547        5.8695914060
 H       -11.3268375879        5.5540402868        7.0741999600
 H       -10.9395153701        6.1223101543        5.1851971224
 H       -14.5340144983        3.5908640212        6.3990261729
 H       -13.5475650042        4.5045600867        7.4601829320
 H       -12.7809570564        2.9778408154        7.0653221272
 H       -14.7339937872       11.5270855079        8.0741871574
 H       -14.5467984579        9.8028702917        8.3644714604
 H       -16.0818934541       10.4207311601        8.6332619744
 H       -17.1797476581       11.8000406757        6.9192086643
 H       -17.6530090924       10.2248504701        7.1776810268
 H       -17.6820977886       10.5472249380        5.5899251869
 Na       -7.7454611339        3.0955024688       -0.7549080941
