117

 C       -13.1945159426       11.1803092948        5.7348960452
 C       -14.6454746119       10.8360173520        5.4235360001
 O       -15.0784664782       10.8232251277        4.2936208924
 C       -15.7052042112       10.3624807089        6.4642036918
 C       -15.6460356567        8.7464519476        6.3691798151
 O       -16.6883042799        8.1510673950        6.3487237395
 C       -14.3437941941        8.0301956108        6.1289005456
 C       -14.6543277418        6.6851141959        5.5944687249
 C       -13.4543585681        6.0422087723        4.7665098499
 O       -13.2510773591        6.4132152657        3.6524038821
 C       -12.5356206920        4.8287973466        5.5237709273
 C       -12.1464261363        3.6262939010        4.5421321220
 O       -12.7393269206        2.5357573939        4.6209703960
 C       -11.3030586581        3.8674738418        3.2657824432
 C       -10.9053315834        2.5224599382        2.6440456796
 C       -10.4336223311        2.5747740413        1.2197072668
 O        -9.2584713261        2.8006160920        1.0413616638
 C       -11.5106346078        2.4899554041       -0.0566738864
 C       -10.5689793445        2.1720349358       -1.2330080899
 O        -9.7349304555        2.9493815757       -1.6703989545
 C       -10.7728662887        0.8289386861       -2.0583489454
 C       -10.0865388315       -0.5759978866       -1.5185577993
 C        -8.5540828379       -0.3842409182       -1.3390160303
 O        -8.1164816690        0.6782065835       -1.0200813752
 C        -7.6016061446       -1.6303797300       -1.7127989086
 C        -7.5501092689       -1.7598924034       -3.2154858874
 O        -8.5387472170       -2.0994077633       -3.8256276358
 C        -6.1248488579       -1.8630250234       -4.0311242672
 C        -6.4302582765       -1.5918443493       -5.5460545913
 C        -7.0060865179       -0.2517594221       -5.9279244676
 O        -7.8361872976        0.4025028540       -5.2701253245
 C        -6.4771552977        0.5643089396       -7.1210300485
 C        -5.8062346915        1.7526968286       -6.1441231619
 O        -4.6465641374        1.6112556198       -5.8532901333
 C        -6.7362711604        2.8433559777       -5.6954373131
 C        -5.8917951447        3.9333394928       -5.0049457436
 C        -6.4786344298        4.2237581547       -3.5986594525
 O        -7.2822483658        3.3687243320       -3.1911285108
 C        -6.1430585359        5.5677936665       -2.8257996000
 C        -7.5492973835        5.9803507928       -2.1455829974
 O        -7.9449175222        5.2777430408       -1.1952751234
 C        -8.3435364658        7.2385824887       -2.4520022879
 C        -5.1336219602        5.2963300713       -1.6757514556
 C        -5.7089264410        6.6656724335       -3.7970492336
 C        -5.4451028501       -0.1884260255       -8.0226385315
 C        -7.7283938929        0.7851417958       -7.9875687851
 C        -6.2312398873       -1.2617641064       -1.0543427224
 C        -8.0061137316       -3.0088611803       -1.2003455426
 C       -12.6949574368        1.4263247114        0.1413598884
 C       -11.9501997132        3.9790954911       -0.1394465844
 C       -11.4464307530        5.7095533088        6.2244251394
 C       -13.3821897650        4.1890609560        6.6483738361
 C       -15.1961726906       10.6696332488        7.8965879413
 C       -17.0649271151       11.0119122297        6.0947621630
 H       -12.8811241553       11.3877694423        6.7234830408
 H       -12.8280461661       12.0273319390        5.1456698356
 H       -12.5151517643       10.4564737791        5.1838912803
 H       -13.7038729025        8.0793082996        7.0064915080
 H       -13.9828347309        8.6342484606        5.2927519232
 H       -15.4906953334        6.8653804047        4.9262985942
 H       -15.0163663638        6.0049720052        6.4326040181
 H       -10.4328682406        4.5230378416        3.3932363419
 H       -11.8530643780        4.3396241215        2.4627202643
 H       -11.8165215800        1.9580358691        2.6516635402
 H       -10.0730324669        1.8947403611        3.0555899966
 H       -10.4560564427        0.9314581420       -3.0365740840
 H       -11.8309133121        0.7593541443       -1.8784458804
 H       -10.1059297351       -1.4316772929       -2.3129357694
 H       -10.5896686218       -0.7565528757       -0.6124314244
 H        -5.7371269227       -2.8635058858       -3.8894075978
 H        -5.4282788538       -1.1445841768       -3.6611551877
 H        -7.1450343831       -2.3474409204       -5.9083075996
 H        -5.5660560031       -1.8253423382       -6.1797283883
 H        -7.6348425972        2.4310269034       -5.1322201401
 H        -7.2189093761        3.4123686365       -6.6369736909
 H        -6.0150122986        4.8301583465       -5.5434067011
 H        -4.9394665547        3.6369339675       -4.8266224841
 H        -8.1990020082        7.8770732801       -3.3544746901
 H        -8.3726720154        7.7004302997       -1.4913476703
 H        -9.3013267510        6.7434397549       -2.6513465200
 H        -4.7014685739        6.2358351242       -1.3565745886
 H        -4.3441749815        4.5602098722       -1.9759278809
 H        -5.7092255002        4.8199478387       -0.7440473776
 H        -5.1089978209        7.5106464374       -3.2711071443
 H        -6.5294420472        7.0790705395       -4.3424280780
 H        -4.9277317452        6.5595515619       -4.5095284450
 H        -4.4814263770       -0.3425285024       -7.5029000138
 H        -5.1821215705        0.3161140952       -8.9510453804
 H        -5.9467617368       -1.0862155713       -8.3734268248
 H        -8.5352966928        1.1537467674       -7.3282644502
 H        -8.0438104961       -0.2233209749       -8.3747859598
 H        -7.4974783432        1.4276744770       -8.8539426134
 H        -6.1628576152       -0.2589447224       -0.9044118326
 H        -5.4661252354       -1.6451221451       -1.7272671082
 H        -6.3148530940       -1.8247546139       -0.1891864114
 H        -8.8585472341       -3.3752172168       -1.7268161420
 H        -8.1018489497       -3.0230485019       -0.1009402319
 H        -7.1843488636       -3.6865285087       -1.5790255373
 H       -12.0990794351        0.5464455606        0.3858041768
 H       -13.3792637545        1.2764941370       -0.7588831525
 H       -13.2375857631        1.6685224152        1.0137138855
 H       -11.1320998739        4.6351957322       -0.4989112160
 H       -12.2440062748        4.2775747144        0.9209537712
 H       -12.8468488594        4.1661973316       -0.6936291174
 H       -11.1197888157        5.1100481140        7.1262048850
 H       -11.7811048791        6.5773612752        6.5528150386
 H       -10.6801827883        5.7134016412        5.4382488694
 H       -14.1238099478        3.4973426624        6.3180686514
 H       -13.7346559198        4.8312732951        7.5429031456
 H       -12.6019172671        3.6777301802        7.0691078708
 H       -15.1207144962       11.6871328999        8.2044259172
 H       -14.1991617591       10.3298519768        8.0965670416
 H       -15.8019829080        9.9334143614        8.5749664985
 H       -17.4105544608       11.5539708155        6.9372920598
 H       -17.8786393032       10.3155081948        5.7908801811
 H       -17.0891710084       11.7325649631        5.2139579516
 Na       -7.6905937392        2.9351950522       -0.7766412894
