117

 C       -12.9269404641       11.0862676839        5.6128091430
 C       -14.4149251183       10.8590216173        5.2401623788
 O       -14.7116354984       10.8249355108        4.0834837211
 C       -15.5459114343       10.5345874827        6.2934177190
 C       -15.5681231593        8.9246116394        6.2235928550
 O       -16.6536799206        8.3949213552        6.1290037674
 C       -14.2632350427        8.0445735776        5.9949089353
 C       -14.6552987079        6.6190030207        5.5242083655
 C       -13.4789180609        6.0732084017        4.8476320771
 O       -13.3137773339        6.1170616069        3.6296016009
 C       -12.5724496721        5.0000292404        5.5807611595
 C       -12.3220584245        3.8008606308        4.6101907020
 O       -12.8452320667        2.7385350642        4.8790202453
 C       -11.3751805047        4.0683297921        3.3040434096
 C       -11.0567177432        2.6568837859        2.7843966951
 C       -10.4332125250        2.7486791436        1.3047948088
 O        -9.3117615092        3.1633977804        1.0486804148
 C       -11.4248121697        2.3517733706        0.0673679396
 C       -10.5526933700        2.0529779302       -1.3331093899
 O        -9.8747874535        2.8987260729       -1.8389060929
 C       -10.7788623879        0.7510676130       -2.1518312419
 C       -10.0654766738       -0.3856197283       -1.4942945323
 C        -8.5543083526       -0.3739936765       -1.4607129146
 O        -7.9698529195        0.7165022455       -1.7143763803
 C        -7.8122241160       -1.6627765399       -1.4811984852
 C        -7.6449355753       -1.8319313192       -3.1403051420
 O        -8.7309694225       -1.9440164713       -3.6679016947
 C        -6.3001545627       -1.7467520270       -3.7445171190
 C        -6.3259742047       -1.7458406992       -5.2523583222
 C        -7.0185208225       -0.3196952606       -5.7199771333
 O        -7.6838081505        0.1893383813       -4.8510537360
 C        -6.4656486161        0.4796234125       -6.9781219316
 C        -5.7509673939        1.6415716907       -6.3361596843
 O        -4.5355659043        1.4870318468       -6.2024592555
 C        -6.6742377873        2.7856342199       -5.8642834383
 C        -5.9474939916        3.8961369298       -5.0813796970
 C        -6.5274528957        4.1598880017       -3.6489788707
 O        -7.1968400913        3.3049537049       -3.1681130996
 C        -6.2811838694        5.5440435542       -2.8814548060
 C        -7.6123598315        5.8470253147       -2.0911695968
 O        -8.0363981708        5.1508412984       -1.2120311630
 C        -8.4134803425        7.1378012596       -2.5228561849
 C        -5.1542862884        5.2427524344       -1.6383774874
 C        -5.6411261057        6.6297865186       -3.7192466881
 C        -5.4394777472       -0.5089966312       -7.7177708060
 C        -7.4918421156        0.8931325256       -8.0645090237
 C        -6.3774120268       -1.4577270740       -0.6800725562
 C        -8.6296470574       -2.8583051303       -0.9155698381
 C       -12.5056664134        1.2644245103        0.4024412201
 C       -12.2402131947        3.6326462440       -0.4292856404
 C       -11.2392412579        5.6933989410        6.0106966376
 C       -13.3141302226        4.4772091891        6.8404865738
 C       -15.1851013197       10.8343899725        7.7971272527
 C       -16.9411403673       11.0672762524        6.0656843560
 H       -12.4593086057       10.1494937968        6.1292049623
 H       -12.6165346001       11.9245312276        6.2491390113
 H       -12.3769168778       11.4111676539        4.7702192881
 H       -13.7835190013        8.0285926650        6.9754591014
 H       -13.7370347168        8.6507607459        5.2582884827
 H       -15.5145074556        6.8268817471        4.8154527491
 H       -15.0776769250        6.1464667959        6.3802301522
 H       -10.3607402154        4.4277357134        3.4835263783
 H       -11.7950360599        4.7215388289        2.5381341054
 H       -11.9228401738        1.9768639934        2.6901342738
 H       -10.3372213651        2.2198679602        3.4495067469
 H       -10.0623627776        0.8249112416       -3.0447225025
 H       -11.8057426645        0.4801575417       -2.3254587690
 H       -10.3896302695       -1.2460316646       -1.9650579995
 H       -10.2876738723       -0.3121414343       -0.3906840313
 H        -5.6665357845       -2.6085233200       -3.3601018338
 H        -5.8476410240       -0.8353347446       -3.2322287560
 H        -6.6521677440       -2.7497659452       -5.6362166013
 H        -5.2841802556       -1.8172673502       -5.6120726476
 H        -7.5552433409        2.3145636795       -5.4931833459
 H        -6.9337842357        3.3257335919       -6.6786918357
 H        -5.9191488033        4.8747157378       -5.6758990418
 H        -4.8677388446        3.4257876862       -4.8061688587
 H        -7.5936881730        7.7597925794       -2.7909748548
 H        -8.8305240166        7.5444324794       -1.5629941541
 H        -9.0540145393        7.1359902565       -3.4515493632
 H        -5.4759221203        5.8241515215       -0.7961509177
 H        -4.1228334089        5.4113012182       -1.9787352646
 H        -5.0050142071        4.2450956031       -1.4400708150
 H        -5.6578960554        7.6333368678       -3.4455573125
 H        -6.0100211622        6.5827488469       -4.7856733991
 H        -4.5138524960        6.5151984468       -3.9568576403
 H        -4.4058605576       -0.4542925403       -7.2235533684
 H        -5.1061759911       -0.1039997203       -8.7447804252
 H        -5.9570844539       -1.4948714393       -7.8258997882
 H        -8.1700736495        1.4608818411       -7.5265716954
 H        -7.9586064947       -0.0315820018       -8.4844679017
 H        -7.0361067281        1.4606858038       -8.8426758782
 H        -6.0265194284       -0.3906866435       -1.0346760085
 H        -5.6752297277       -2.2076939007       -0.9979523487
 H        -6.8359724471       -1.4611001420        0.3213808421
 H        -9.3767674477       -3.0879035361       -1.6575491761
 H        -9.1369847086       -2.4654024707       -0.0875957432
 H        -8.0184363575       -3.6910026206       -0.5958515539
 H       -12.1758966111        0.2399506686        0.5875662478
 H       -13.1813293136        1.2142200789       -0.4067742462
 H       -12.8514365884        1.5783681076        1.4107871919
 H       -11.5791681987        4.4900724169       -0.1264649375
 H       -13.1032211761        3.7457330020        0.0802571091
 H       -12.4645726134        3.6918384773       -1.4852566396
 H       -11.0500238141        5.5271823501        7.0457024598
 H       -11.4793606053        6.8432782467        5.7195256712
 H       -10.4661664950        5.4156951316        5.3399168388
 H       -14.2703914249        4.3826542050        6.3829035732
 H       -13.2990647556        5.2113436836        7.7656091253
 H       -13.0344896299        3.4478143985        7.1777120405
 H       -15.2529234012       11.9463771788        7.7512630181
 H       -14.2189593512       10.7962794703        8.2936472733
 H       -15.9167747357       10.4476320825        8.3686143891
 H       -17.7031477099       10.7359741011        6.8776443624
 H       -17.2983117359       10.7630979342        5.0722841588
 H       -17.0442955627       12.1244883950        6.1250545470
 Na       -7.7389296317        2.9048923579       -0.8511795974
