117

 C       -12.8672882586       11.3294453863        5.6348586677
 C       -14.2170651065       10.9605790188        5.0993425339
 O       -14.4852064092       11.0587324855        3.8851310319
 C       -15.3356465319       10.5664280447        6.2120812558
 C       -15.6539476291        9.0051870072        6.0664247841
 O       -16.7221026053        8.5369274658        6.0917959133
 C       -14.3897680917        8.0220075067        5.8608581814
 C       -14.7743364720        6.6210044129        5.3420008030
 C       -13.4604696691        5.9961461579        4.8153579654
 O       -13.3531798799        6.1115540709        3.6120822623
 C       -12.5278587849        4.9808718313        5.6688523023
 C       -12.3451858993        3.7636390544        4.6285395702
 O       -12.7915866353        2.6789053515        4.8899773682
 C       -11.5210344441        4.0845458051        3.2901928438
 C       -11.0996725119        2.7111177344        2.7002912089
 C       -10.5208407967        2.8753328227        1.2190403747
 O        -9.4042668250        3.2130234690        0.9248798717
 C       -11.5510158384        2.4754347883       -0.0064315426
 C       -10.8317617594        2.1377458771       -1.3065000503
 O       -10.1594226904        3.0576603900       -1.7851103688
 C       -10.9255759316        0.9373292193       -2.1035715711
 C       -10.0811756083       -0.2941482629       -1.4229133540
 C        -8.5239895237       -0.3456613811       -1.5418799981
 O        -7.8277960538        0.5984889446       -1.7255473063
 C        -7.9491578198       -1.8051667686       -1.3304637144
 C        -7.8352626204       -2.0980516883       -2.8762264633
 O        -8.7415340668       -2.3076633261       -3.6467122723
 C        -6.3802368209       -1.8484968121       -3.3981877309
 C        -6.3753979390       -1.7289847852       -4.9222051385
 C        -6.9430377084       -0.4117573416       -5.4229976932
 O        -7.8226775051        0.2273686532       -4.9380261559
 C        -6.1836720668        0.4053843542       -6.9320541453
 C        -5.5033265234        1.6877945854       -6.4672052561
 O        -4.3288053224        1.7632618918       -6.3089125189
 C        -6.5729409664        2.8814930854       -5.9504129662
 C        -5.8130841042        3.9059342418       -5.0914365240
 C        -6.4586683263        4.0751394018       -3.7051421162
 O        -6.8850629720        3.0821489601       -3.1743698220
 C        -6.2862114432        5.3944881149       -2.8438273157
 C        -7.7095738288        5.7953332856       -2.2503136621
 O        -7.9493986616        5.3017669550       -1.1623177763
 C        -8.3711632832        7.1248680152       -2.7107905094
 C        -5.2599139612        4.9186856358       -1.7841138946
 C        -5.7349608854        6.5632162590       -3.7234491569
 C        -5.3337741492       -0.6432107066       -7.7357179507
 C        -7.5497208283        0.6465363228       -7.6574172050
 C        -6.5901164542       -1.8097540450       -0.4617666231
 C        -8.9251799307       -2.7271527559       -0.5277983211
 C       -12.2142041563        1.1123369315        0.4451771955
 C       -12.5671810295        3.5521599158       -0.3730483717
 C       -11.2094494869        5.8090505160        5.8500372357
 C       -12.9846690944        4.5941023473        7.0992472039
 C       -14.8866783110       11.0142879100        7.6098449184
 C       -16.6137277992       11.2916115245        5.7155195912
 H       -12.0765326186       10.7497736726        5.2359507408
 H       -12.8507476373       11.2980908494        6.7080155723
 H       -12.5639873871       12.3836239825        5.5923630363
 H       -13.9412244870        7.8742137323        6.8624916530
 H       -13.7092085424        8.5731712583        5.2003261048
 H       -15.5353038823        6.7218500560        4.6004774558
 H       -15.2528567702        6.1610980217        6.2590612193
 H       -10.5763893099        4.5616446079        3.5691111641
 H       -12.0878338026        4.7478817396        2.6081595967
 H       -11.9463148904        2.0772096990        2.5336820499
 H       -10.4371142811        2.2205986761        3.4601476993
 H       -10.7035073662        1.1044790662       -3.1119209178
 H       -11.9195724252        0.4210069661       -1.9501337944
 H       -10.4781869309       -1.1479175706       -2.0676252618
 H       -10.3981229129       -0.3775036213       -0.4021566401
 H        -5.8294596998       -2.6936293861       -3.0324882414
 H        -5.8959618686       -1.0183722020       -2.9515158942
 H        -6.8957472652       -2.4361300686       -5.4807707866
 H        -5.4058247340       -1.9334138098       -5.3805465429
 H        -7.2892600615        2.2868929462       -5.2960124918
 H        -7.1794804972        3.4396563226       -6.7778675447
 H        -5.7681209340        4.9164134214       -5.4465145450
 H        -4.8674778563        3.5304024656       -4.9542344259
 H        -7.7520068721        8.0050514188       -2.4278723460
 H        -9.3764768292        7.2754271038       -2.4009837694
 H        -8.1903955029        7.1135088028       -3.7387194001
 H        -5.6234560090        5.1567748352       -0.7224507570
 H        -4.2904382837        5.2430624605       -2.0066278748
 H        -4.9512145180        3.8701588395       -2.0123341618
 H        -5.4123047794        7.5105307593       -3.1766173555
 H        -6.3843318764        7.0478287044       -4.4853351518
 H        -4.9696484685        6.3074306402       -4.3475161192
 H        -4.4802845772       -0.9277601352       -7.2607247305
 H        -4.9217837562       -0.2580762372       -8.5919774919
 H        -5.9791322558       -1.4995197809       -7.8607716934
 H        -8.3109836068        1.0003557075       -6.8623494149
 H        -7.7652583149       -0.2564501252       -8.1011770671
 H        -7.4462486913        1.4398944098       -8.4346991904
 H        -5.8982053936       -1.4336598991       -1.0825723613
 H        -6.3387720970       -2.8467207634       -0.2978797812
 H        -6.8226483285       -1.1950669522        0.3467755721
 H        -9.8299628904       -2.7851867183       -1.1764134153
 H        -9.2567748896       -2.1720253236        0.4093968958
 H        -8.4555385785       -3.6595259447       -0.2107342313
 H       -11.5886529233        0.5220748386        1.1272327551
 H       -12.3360112915        0.4155420413       -0.4071275983
 H       -13.0731537562        1.2556176356        1.0553869723
 H       -12.1421726979        4.4479395533       -0.7397327928
 H       -13.3240763707        3.8755199439        0.4630037829
 H       -13.1275542753        3.0176296680       -1.1911579435
 H       -10.9367866482        5.7690615364        6.9083632354
 H       -11.4131069260        6.7519046275        5.4077155284
 H       -10.3525839346        5.4778874746        5.2254911708
 H       -13.9219114142        3.9420977253        7.1261011983
 H       -13.1901378069        5.5109602859        7.4337248194
 H       -12.1889943691        4.1736399905        7.7789553512
 H       -14.3308412617       11.9216811884        7.7286013413
 H       -14.1278853797       10.2796513631        7.8751620516
 H       -15.7528746975       10.9114617504        8.3884932835
 H       -17.4704109129       10.7629527548        5.4462184626
 H       -16.4040202179       11.9151706544        4.8914736958
 H       -17.0776357050       11.8853264342        6.5329291822
 Na       -7.9831909881        2.9836946759       -0.9487316962
