117

 C       -12.6885954387       11.4578012465        5.5097972069
 C       -14.0896538722       10.9978283327        5.0806073534
 O       -14.3818078218       11.1424908791        3.8960365417
 C       -15.2068513398       10.5383162775        6.0683275314
 C       -15.6478128330        9.0794949161        5.9666037966
 O       -16.7795713643        8.6943370140        6.1088793091
 C       -14.3923146098        8.0371399927        5.9305124232
 C       -14.7565845347        6.6734445340        5.5024261339
 C       -13.5766404928        5.8772665958        4.7877439860
 O       -13.2391875830        6.1312412134        3.6496764104
 C       -12.5195915994        5.1663306235        5.6105104079
 C       -12.2309301414        3.7822593573        4.6784979712
 O       -12.7653341098        2.7711386960        5.0204303142
 C       -11.5277850984        3.9445696753        3.2365795244
 C       -11.0325595749        2.6865152627        2.5350218835
 C       -10.6030338352        2.9176097140        1.0750437994
 O        -9.4535120173        3.1860231108        0.8805962999
 C       -11.6673294085        2.3739692880       -0.0082814509
 C       -10.8509375475        2.2868483102       -1.3098505971
 O       -10.2209498521        3.2861419415       -1.6930505569
 C       -10.8061738177        0.9991390643       -2.1632975412
 C       -10.1969619935       -0.3630646609       -1.4865372459
 C        -8.6585582643       -0.3079152648       -1.3969070849
 O        -7.8684854814        0.6412921084       -1.4824740261
 C        -8.0017850281       -1.7590611987       -1.2338022285
 C        -7.7623781434       -2.2311505766       -2.7967213554
 O        -8.7585854016       -2.6816365955       -3.3642893954
 C        -6.4215598556       -1.9515250665       -3.4255715959
 C        -6.3216793531       -1.6368270011       -4.8759684619
 C        -6.7681082958       -0.2407861538       -5.4524719314
 O        -7.8046637804        0.1418404351       -4.9492860676
 C        -6.2839815584        0.3161068408       -6.7207577782
 C        -5.4860471177        1.7087807419       -6.4090312781
 O        -4.3088261307        1.8413987889       -6.3673340834
 C        -6.3759692906        2.7632490726       -5.9754366879
 C        -5.8218532973        3.8648746596       -5.1914043891
 C        -6.4695639520        3.9719564310       -3.8092919838
 O        -6.8520962296        3.0652924248       -3.1719259258
 C        -6.2417233045        5.2919007635       -2.9191110834
 C        -7.5528494135        5.8331160454       -2.1753582062
 O        -8.0464698411        5.3184388815       -1.1719207019
 C        -8.2876658980        6.9245361631       -2.7874186813
 C        -5.2673315168        4.9779110802       -1.7765383766
 C        -5.6277746395        6.4716927308       -3.7188887543
 C        -5.3084175159       -0.4909809508       -7.5361747315
 C        -7.6416310047        0.4936615086       -7.5989997015
 C        -6.7031814769       -1.9209302831       -0.4081166626
 C        -9.0363582574       -2.7691782525       -0.5280194326
 C       -12.2815753107        1.0398688167        0.5207939187
 C       -12.8105979287        3.5419467775       -0.1403941868
 C       -11.1899583327        5.9879087817        5.7165074406
 C       -13.0270824837        4.5829067554        6.8819076325
 C       -14.9699030505       10.8237259343        7.4728825639
 C       -16.4758854199       11.4994871678        5.6190700604
 H       -12.0491250347       11.5320862275        4.5802087378
 H       -12.1672863035       11.0671630203        6.4023856726
 H       -12.7349696528       12.4335968523        5.9134653617
 H       -13.6165007292        8.0914816848        6.7085571546
 H       -13.9960272495        8.4699944443        4.9939719993
 H       -15.7070255355        6.8130690861        4.9498032275
 H       -15.0300206640        6.1162893363        6.3895676720
 H       -10.7150811238        4.6500470453        3.3133716711
 H       -12.3303987299        4.3956172391        2.6062353611
 H       -11.8192137233        1.8778112461        2.5542641525
 H       -10.1597471197        2.3003842135        3.0681845423
 H       -10.3197695573        1.2169723549       -3.1097052843
 H       -11.7641762714        0.6016519086       -2.3861855655
 H       -10.4349829282       -1.1314834979       -2.1487540411
 H       -10.6792485694       -0.5361288272       -0.4652244965
 H        -5.7896957659       -2.7170870639       -3.0843249991
 H        -6.0230617349       -1.0937443077       -2.8898517098
 H        -6.9814681908       -2.1645963081       -5.5400242813
 H        -5.4094284727       -2.1175144473       -5.2998697290
 H        -7.2285003130        2.2499117121       -5.3236632916
 H        -6.8135477382        3.1191260069       -6.9087002101
 H        -5.9409279845        4.8734583303       -5.4821255516
 H        -4.7593765659        3.7900257620       -5.0829536754
 H        -7.9912654691        7.8709579864       -2.3759684473
 H        -9.3564799769        6.7915321574       -2.5154932444
 H        -8.0554929150        6.9739559677       -3.8541821517
 H        -5.7469982886        5.4152657316       -0.8303496090
 H        -4.2959255039        5.4455582813       -1.9974570076
 H        -4.9085650105        4.0197651355       -1.7446540092
 H        -5.3731855531        7.2596492459       -3.0940634648
 H        -6.1491396096        7.1400844584       -4.4911999985
 H        -4.7869204694        6.1801008270       -4.3731206948
 H        -4.3963455361       -0.8078582060       -7.0631795339
 H        -4.9316230946        0.1243105422       -8.3356575068
 H        -5.7627870999       -1.4225649238       -7.8247571497
 H        -8.4646493063        0.9336679879       -7.0120854129
 H        -7.8323381588       -0.4970181434       -7.9688432696
 H        -7.3314305952        1.1404972303       -8.4594268193
 H        -5.9752744301       -1.3849794453       -1.0530376930
 H        -6.4851663680       -2.8992823368       -0.4488508841
 H        -6.8603258527       -1.4796762797        0.5224693452
 H        -9.9481872074       -2.7816080720       -1.2002185500
 H        -9.3397002568       -2.5282577764        0.5175772270
 H        -8.5330227290       -3.6981138724       -0.4864853372
 H       -11.6737948411        0.3985119947        1.1263731134
 H       -12.4762894239        0.4528844191       -0.3839368732
 H       -13.2347584833        1.1288262134        1.1100010778
 H       -12.4850440775        4.3125947779       -0.8497145522
 H       -12.9457634002        4.0694621683        0.7479738030
 H       -13.8034235328        3.0925656421       -0.5160036405
 H       -10.9497608018        6.0145304862        6.7188918459
 H       -11.2170178948        6.9922881305        5.0838578464
 H       -10.3772956326        5.4875895880        5.2730045522
 H       -13.5406990240        3.7053139404        6.7925339643
 H       -13.5142295412        5.3675499376        7.4924785704
 H       -12.0617132850        4.3804918885        7.3449497213
 H       -14.4882734066       11.8274104301        7.6393801393
 H       -14.1627017989       10.1153912660        7.8366753596
 H       -15.8455752657       10.7486063837        8.0171683018
 H       -17.1984309682       10.8998219272        4.9190614080
 H       -16.2383403864       12.2995881463        4.9596045301
 H       -17.1922900112       11.7250829350        6.3760392233
 Na       -8.1477544904        3.0083156175       -1.1083455673
