117

 C       -12.4609094097       11.5891207887        5.4602199845
 C       -13.8573163415       11.2772831051        4.8786397385
 O       -13.9110177053       10.9777188378        3.7308168514
 C       -15.0299034559       10.9475842499        5.8799855036
 C       -15.3877843860        9.2728801923        5.6349478791
 O       -16.6069857740        8.9475393435        5.5523221039
 C       -14.1760364854        8.3741796862        5.4185545996
 C       -14.5290007754        6.9957249342        5.4514997955
 C       -13.5184106659        6.0913502243        4.6707733092
 O       -13.6114105380        6.0958822742        3.4695720950
 C       -12.4246086395        5.3010936061        5.4424669198
 C       -11.9802586221        3.9512098628        4.6358870506
 O       -12.1905858116        2.8247343222        5.0889213025
 C       -11.3645602031        4.0344192118        3.2046067598
 C       -11.2132475058        2.6475413313        2.5381915787
 C       -10.8225531270        2.6374792431        1.0934645821
 O        -9.6783308102        2.8017838964        0.6936396938
 C       -11.9571065511        2.3153977711        0.1040107698
 C       -11.2772613118        2.4659310126       -1.3528255299
 O       -11.0118534413        3.5339944727       -1.8925567665
 C       -10.6945313274        1.2592503605       -2.4221624554
 C       -10.1584010704       -0.2530628409       -2.1739220357
 C        -8.9613932830       -0.3991433601       -1.2351365279
 O        -8.4613287478        0.4777541784       -0.5110041499
 C        -8.2999631194       -1.8452930756       -0.9998506017
 C        -7.7103642193       -2.3681073231       -2.4197090406
 O        -8.1315786702       -3.3431702637       -2.9300868865
 C        -6.4147766862       -1.7741061000       -3.1239685583
 C        -6.5518046695       -1.7529656178       -4.6483466793
 C        -6.9173325502       -0.3979244466       -5.1773488296
 O        -7.6614794607        0.3138249558       -4.4591120933
 C        -6.2759351821        0.0244109880       -6.5039956237
 C        -5.7680332508        1.5185591441       -6.2350684175
 O        -4.5750628078        1.8154700843       -6.2244129159
 C        -6.6813818297        2.7025705698       -5.8500590511
 C        -6.0169133257        4.0482287023       -5.3086146909
 C        -6.3584327604        4.0260292704       -3.7226735146
 O        -6.9252985485        3.1236859374       -3.1463803972
 C        -5.9122226004        5.2906127660       -2.8944181123
 C        -7.3056114753        5.7623278589       -2.4598951451
 O        -7.9564495440        5.2207771147       -1.5603324674
 C        -8.1491429781        6.7483203464       -3.3080472517
 C        -5.0862541533        4.7768387281       -1.6579867362
 C        -5.1525455749        6.4372236045       -3.5415255438
 C        -5.0439872229       -0.8165714889       -7.0404456317
 C        -7.3237459526        0.0493422059       -7.5768506098
 C        -6.9531836230       -1.9691309959       -0.0210851262
 C        -9.4020144957       -2.7406424837       -0.4873869567
 C       -12.4365318344        0.8569827090        0.3930411659
 C       -13.0863706205        3.3107783130        0.2324594675
 C       -11.1406978293        6.3311925360        5.4351407361
 C       -12.9412935812        4.8187848946        6.8727432389
 C       -14.6059370993       11.1648215540        7.3684999120
 C       -16.2491578102       11.7181511496        5.4502328647
 H       -12.4066156142       12.3318626043        6.2917211923
 H       -11.7798525413       11.8199234312        4.6650063749
 H       -11.9275897869       10.7452625310        5.7333667212
 H       -13.2625594348        8.5574694134        5.9880195950
 H       -13.8091388763        8.5492991379        4.4051631963
 H       -15.5785973109        6.7381053908        5.0951961372
 H       -14.4642766023        6.6398742776        6.4573159549
 H       -10.4332104843        4.5649152569        3.2412284629
 H       -12.1516506718        4.6425232295        2.7001352728
 H       -12.2466800029        2.2424071196        2.6947762829
 H       -10.6373079977        2.0455798657        3.2195252343
 H        -9.8883282502        1.7247036782       -3.0150326953
 H       -11.5420722723        1.2962501463       -3.1007738099
 H        -9.7340613044       -0.7367727621       -3.0059016171
 H       -10.8968691746       -0.9959467863       -1.6804993402
 H        -5.6179181096       -2.4127365993       -2.8783613796
 H        -6.1806008663       -0.8274758333       -2.6602146432
 H        -7.2140162773       -2.5487160467       -4.9274097172
 H        -5.6762921666       -2.1065154857       -5.1730188503
 H        -7.3197576089        2.2363041151       -4.9384783239
 H        -7.3996314670        2.9895675598       -6.6541113941
 H        -6.1984040228        4.9533672083       -5.8395371873
 H        -4.9716408975        4.0592980863       -5.2750051166
 H        -7.6647295354        7.6617613466       -3.4152025982
 H        -9.1012676647        7.0497180801       -2.8976653539
 H        -8.4162314407        6.3259933263       -4.3161107055
 H        -4.4350064400        5.5352328612       -1.2082398969
 H        -4.4566959477        3.8537839518       -2.0938009895
 H        -5.7574054231        4.4011811800       -0.8847409267
 H        -4.9159108694        7.3032458002       -3.0028693280
 H        -5.7300036768        6.9982684038       -4.2500077521
 H        -4.1968693089        6.1415714976       -4.1351593885
 H        -4.2775672028       -1.0211686762       -6.3299057050
 H        -4.7172090889       -0.3150911649       -7.9171947719
 H        -5.2147553284       -1.7700621108       -7.3850104435
 H        -8.1706737544        0.4494149432       -7.0919594730
 H        -7.5951180323       -1.0110568383       -7.9794972359
 H        -6.8907625158        0.7291121667       -8.3173368624
 H        -6.3878375236       -1.0223484120       -0.0345446326
 H        -6.5367072116       -2.8954477192       -0.2370363712
 H        -7.3764315397       -2.1211033327        0.9299024131
 H       -10.1535640154       -2.8779591737       -1.3150622560
 H        -9.8467527430       -2.2250165951        0.4029388751
 H        -8.9753991909       -3.7371494598       -0.1987821649
 H       -11.7143843886        0.1022872471        0.5525606725
 H       -13.1906004209        0.5768506149       -0.2985295638
 H       -13.1693739598        0.9279539286        1.2453367669
 H       -12.7160100318        4.3375291847       -0.2008187644
 H       -13.2389209045        3.4874751998        1.2750588736
 H       -14.0011540345        2.9289170688       -0.2314285989
 H       -11.3476743595        7.3887508376        5.7148911613
 H       -10.8775774442        6.2930779204        4.3841722595
 H       -10.3138647622        6.0551653416        6.0766797729
 H       -13.9066315997        4.6055908056        6.6104976445
 H       -12.9029837706        5.6084489776        7.7409510233
 H       -12.4209036431        4.0334867148        7.1536230460
 H       -14.1870359925       12.1939134753        7.3806929388
 H       -14.0834412476       10.3950873552        7.9940475002
 H       -15.4501526279       11.5239662436        7.8018091877
 H       -15.8790591607       12.6326377965        4.9105996282
 H       -16.8400463039       12.2321678116        6.1739893686
 H       -16.8872335679       11.1648390323        4.8701655468
 Na       -8.6333588256        2.8298549422       -1.2224148716
