117

 C       -12.3626939410       11.6412260050        5.3937164427
 C       -13.7167769117       11.1869997737        4.9024336131
 O       -13.9446521540       10.9808219418        3.7365832645
 C       -14.9757708584       11.1035940470        5.8430247395
 C       -15.3151493203        9.4872968329        5.5723056580
 O       -16.4098161986        9.0704178692        5.4242602049
 C       -14.0561474710        8.5420820341        5.2734333527
 C       -14.4611494700        6.9580078946        5.4200454880
 C       -13.4331566808        5.9876275687        4.5812561136
 O       -13.6251278191        5.8560093071        3.3813263784
 C       -12.2467132561        5.3382103362        5.2791359935
 C       -11.8193303585        3.9706464726        4.6767583695
 O       -12.1510499261        2.9111852984        5.2155990784
 C       -11.3580757431        4.0358257869        3.2092367415
 C       -11.3477117474        2.6747911922        2.6123491021
 C       -10.9351500066        2.6207574548        1.0585699512
 O        -9.7303025577        2.7043799829        0.8984577191
 C       -12.0175400104        2.2483592856       -0.1038373832
 C       -11.2373897101        2.3116663433       -1.5820293608
 O       -11.0074876239        3.4294871608       -1.9535824986
 C       -10.8556638402        1.1510428278       -2.5174471992
 C       -10.2059833548       -0.1861727286       -2.1312817061
 C        -8.9384616230       -0.3543667358       -1.1723661649
 O        -8.5680134029        0.6303019975       -0.5922748424
 C        -8.3329198389       -1.8165096340       -0.9683987334
 C        -7.6938521557       -2.3886162270       -2.2699463824
 O        -8.2010066974       -3.3760525397       -2.7937240638
 C        -6.4605184616       -1.6264936930       -2.9511368109
 C        -6.6021821033       -1.7936845759       -4.4358460861
 C        -6.8225225573       -0.3433754162       -5.0591176503
 O        -7.7282638515        0.3595074441       -4.5931387892
 C        -6.2696658929        0.1675723801       -6.4124701964
 C        -5.6823311776        1.5262776430       -6.1193971809
 O        -4.4679459350        1.6515416444       -6.1882542578
 C        -6.7502968442        2.6221774741       -5.7980001796
 C        -6.1788759909        3.8927544053       -5.1681833024
 C        -6.2853677928        3.9821349706       -3.6654496340
 O        -6.9597049297        3.1032751235       -3.1476002937
 C        -5.9864417547        5.2157538905       -2.9062459904
 C        -7.3347577616        5.7963137737       -2.4109801773
 O        -8.0352422099        5.2342475687       -1.6303032985
 C        -8.1095745122        6.8494750259       -3.3982818418
 C        -5.0585033592        4.6061400628       -1.6911006784
 C        -5.1058167700        6.2392945076       -3.6750228651
 C        -5.0078818261       -0.6701206943       -6.8525642600
 C        -7.4667671719       -0.0865016631       -7.4287864681
 C        -7.1923450405       -1.8915259966        0.0760569020
 C        -9.4363008183       -2.7955241274       -0.5691859525
 C       -12.2961948064        0.7809332837        0.3019809536
 C       -13.2311841444        3.2625587256        0.1509908625
 C       -11.1606984399        6.3502287917        5.5139219676
 C       -12.8679565701        4.9489963335        6.7363563026
 C       -14.6822297212       11.2098369662        7.3316868847
 C       -16.1663863840       11.8836756306        5.3472756969
 H       -12.3980219708       11.9124267435        6.4402470529
 H       -12.1025152193       12.4914104085        4.7924828481
 H       -11.3740641086       11.1348755778        5.1818180379
 H       -13.0580712905        8.7539914329        5.6748430891
 H       -13.8142151056        8.5790391862        4.1866623449
 H       -15.5195303315        6.7953104966        5.1366719477
 H       -14.3567395285        6.6295124196        6.4293413041
 H       -10.2890603153        4.3687982000        3.2306876001
 H       -12.0218710981        4.7704846620        2.7880445905
 H       -12.2918519282        2.1778226102        2.9253144525
 H       -10.6163595881        2.2141450482        3.2978390393
 H       -10.1755688713        1.5070906281       -3.3342155630
 H       -11.7623625520        1.0294064896       -3.0095183295
 H        -9.6833177980       -0.6497027283       -2.9446111342
 H       -10.8724550738       -0.9743102753       -1.7594438570
 H        -5.5923511729       -2.1911031671       -2.6835511122
 H        -6.3053819694       -0.6363015564       -2.5799874422
 H        -7.4022042317       -2.5766822977       -4.6742690980
 H        -5.7312075135       -2.2915714301       -4.8485137655
 H        -7.6066248907        2.1172358695       -5.3634001158
 H        -7.0029080453        3.0553966563       -6.8188018173
 H        -6.5493503503        4.8363718710       -5.5879206461
 H        -5.1592037345        4.0250762809       -5.5940231419
 H        -7.5301056384        7.7742874121       -3.3883494953
 H        -9.0738668320        7.1561510549       -3.1180398202
 H        -8.3490803016        6.4747795523       -4.4386122038
 H        -4.2818374807        5.2734268849       -1.4004391611
 H        -4.5730185586        3.6944854560       -2.0646734745
 H        -5.6833008467        4.4066647368       -0.7593210354
 H        -4.7707344707        7.2553498065       -3.1580061126
 H        -5.4964613213        6.7566766635       -4.5008975070
 H        -4.1517095741        5.7927854262       -4.0026858150
 H        -4.3678130851       -0.9471781867       -6.0416071135
 H        -4.5658154403       -0.2746567549       -7.7495701436
 H        -5.2086761098       -1.6558212136       -7.2890432465
 H        -8.3263008905        0.2651873107       -6.8838403342
 H        -7.6372896455       -1.2013715059       -7.5777452914
 H        -7.2113220468        0.4717213911       -8.3192810123
 H        -6.4381228023       -1.2236493925       -0.1629144073
 H        -7.0412814654       -2.9633370222        0.3826067152
 H        -7.6617552784       -1.4756686461        0.9576649469
 H        -9.9483736585       -3.0342250436       -1.4945061617
 H       -10.0889530932       -2.3967960318        0.2319944773
 H        -8.8873850598       -3.7851758617       -0.3036522475
 H       -11.4250634131        0.3038186030        0.7071985638
 H       -12.6799690380        0.2289113606       -0.5541970957
 H       -13.1591443398        0.6098643638        0.8820509050
 H       -12.7948684409        4.1998273208        0.4854142018
 H       -13.6604448014        2.8107017904        1.1042907982
 H       -13.9436606914        3.3763660239       -0.5838506267
 H       -11.7060354730        7.0318448441        6.2416826286
 H       -11.0573284218        6.9378560462        4.7063077021
 H       -10.1978510841        6.1230075608        5.9531243995
 H       -13.7409900627        4.4005796375        6.3694261618
 H       -13.0989731499        5.6876273280        7.3755296054
 H       -12.0883525518        4.3258094773        7.1928956211
 H       -14.1204026500       12.1298683267        7.4351028358
 H       -14.3376559663       10.3364305366        7.8361078307
 H       -15.6172623220       11.6287204819        7.7808772152
 H       -15.9897053974       12.9184085554        5.4050182862
 H       -17.0390073965       11.8085859288        6.1096588224
 H       -16.6645975955       11.5163999951        4.4442632315
 Na       -8.5832257976        2.9110872834       -1.1737980186
