117

 C       -12.2270928483       11.9448817271        5.3348769404
 C       -13.4833776280       11.3942868424        4.7767448858
 O       -13.6828383696       11.2286916132        3.5919319537
 C       -14.7506731132       11.0791299777        5.6723818522
 C       -15.1082287815        9.5604788348        5.3206958111
 O       -16.2889761852        9.1483969391        5.3187764569
 C       -14.0063597888        8.6188196495        4.9797338191
 C       -14.5017169644        7.2164890315        5.0793309183
 C       -13.5613156145        6.1036226372        4.5280961093
 O       -13.6422591638        5.5796583169        3.4614031407
 C       -12.2704978338        5.4103578136        5.4151125553
 C       -11.7993936362        4.0292682534        4.6247282766
 O       -11.7880227328        2.9931225551        5.2591310192
 C       -11.2908419252        4.0262807938        3.1093356900
 C       -11.6941029369        2.6610431857        2.4427203814
 C       -10.8972793785        2.4902622012        1.1423192874
 O        -9.7629974710        2.8640454920        0.8929200621
 C       -11.7681511821        1.8486315686       -0.1832854830
 C       -11.0717208526        2.1179792840       -1.4531074249
 O       -10.7826605572        3.2923435855       -1.8299166070
 C       -11.0758285688        0.9861242976       -2.4522731408
 C       -10.4457882464       -0.2579308290       -2.0971787910
 C        -9.1782070464       -0.3426022660       -1.1710140592
 O        -8.4786442089        0.6213044159       -0.9762680528
 C        -8.5753304354       -1.7103891783       -0.8046151541
 C        -7.8717964607       -2.2546193518       -2.0843577738
 O        -8.1973594728       -3.2514500728       -2.6290005484
 C        -6.6570615809       -1.4850751421       -2.5745868633
 C        -6.3433005517       -1.5983601945       -4.1174965872
 C        -6.9354187150       -0.4601519513       -4.8580374501
 O        -7.9012189042        0.1320406504       -4.4318637478
 C        -6.1866408983        0.0309678545       -6.2370339874
 C        -5.7413438881        1.4606664835       -6.0544043201
 O        -4.5859345927        1.8088414692       -5.8820199434
 C        -6.8690577398        2.6576599733       -6.0705666505
 C        -6.3158609894        3.7423062339       -5.1953141587
 C        -6.5135577349        3.6970375855       -3.7286058931
 O        -7.1399522797        2.8158686984       -3.1861352172
 C        -6.0347428677        4.9433264102       -2.9164378055
 C        -7.3297750261        5.7776047714       -2.5465407255
 O        -8.0763704727        5.3952063472       -1.6305280875
 C        -7.6518343543        7.0365977992       -3.2711828045
 C        -5.3863238112        4.6700097722       -1.6112432775
 C        -5.1593295305        5.8069579307       -3.7412198365
 C        -5.0916976980       -0.9689908838       -6.6736250354
 C        -7.2604254695        0.0233990850       -7.3326335561
 C        -7.6887845403       -1.4581190692        0.5021124469
 C        -9.7571690011       -2.7053014840       -0.4103769035
 C       -12.3546600530        0.4479290757        0.0963749733
 C       -13.1354574194        2.7794921365       -0.3489456117
 C       -11.0990820789        6.4126246006        5.4980680478
 C       -12.6104986467        4.9421124666        6.8339946267
 C       -14.6545020438       11.2147025748        7.1358141356
 C       -15.9511080326       12.0268718487        5.2207129138
 H       -11.6199760008       11.1923575232        5.9357792293
 H       -12.3484733344       12.9309112594        5.8741152027
 H       -11.6279920514       12.3233181743        4.5378012888
 H       -13.0679868584        8.8515597278        5.5014414764
 H       -13.6939269384        8.7778723392        3.9418635392
 H       -15.3639326326        7.2677295559        4.3917922271
 H       -14.8854018817        6.9176108606        6.0776744781
 H       -10.2219329295        4.0023625376        3.1983203216
 H       -11.6021796110        4.9080871160        2.4791235797
 H       -12.7606854494        2.5332684516        2.2414078827
 H       -11.3861109769        1.8957368417        3.1443881430
 H       -10.7231287083        1.2940796513       -3.4119354554
 H       -12.1934045067        0.7795864938       -2.6734188763
 H        -9.9981887647       -0.8736846893       -2.8926476662
 H       -11.1520507413       -0.9909392946       -1.6771643107
 H        -5.8045782172       -1.8444544251       -1.9207440806
 H        -6.7731139372       -0.3721889407       -2.3650568726
 H        -6.7691105546       -2.4802583054       -4.6385445754
 H        -5.2276450143       -1.6890850451       -4.3101730752
 H        -7.8483882029        2.2381142248       -5.7905058901
 H        -6.8816119790        3.0713604141       -7.0165140317
 H        -6.5156983524        4.8186136267       -5.5595529852
 H        -5.2206957657        3.8521594255       -5.4937096092
 H        -7.1677004901        8.0498873272       -3.1623390232
 H        -8.7626771531        7.2642130455       -3.1679012281
 H        -7.8618143267        6.7306802402       -4.2841658366
 H        -5.0358606535        5.5657986767       -1.0699519556
 H        -4.3588342568        4.1995521829       -1.7314383018
 H        -6.1241022122        4.2785624764       -1.0149295593
 H        -4.8639170107        6.6542343097       -3.2799332500
 H        -5.5784782268        6.2055794264       -4.6957087580
 H        -4.1245940735        5.4839516716       -3.9287264756
 H        -4.2443313065       -0.9691388641       -5.9194389036
 H        -4.7952082210       -0.9489995963       -7.7499734214
 H        -5.3203001933       -2.0421795081       -6.7389645136
 H        -7.9657321243        0.7505541666       -7.0521848796
 H        -7.7636729681       -0.9350111004       -7.2007418914
 H        -6.8148371212        0.1908091118       -8.2881039551
 H        -6.6532499956       -1.1784878467        0.0064340129
 H        -7.6974461055       -2.3576450229        1.0958480070
 H        -7.8620559272       -0.5425751146        1.1175203138
 H       -10.3996471761       -2.8167573877       -1.2654319767
 H       -10.2367069158       -2.2325292049        0.3883479476
 H        -9.4526334539       -3.6755522868       -0.2308280038
 H       -11.4786081337       -0.1925790220        0.2798520043
 H       -13.1336955665       -0.0568016018       -0.4205310087
 H       -12.8493104496        0.4456640840        1.1133494233
 H       -13.0517688970        3.6391289029        0.3922067447
 H       -13.9922499559        2.2185753442       -0.3317323175
 H       -13.0523889297        3.2783341779       -1.3431284408
 H       -10.9563620019        7.1702723267        6.2820968845
 H       -11.0703772777        7.0352244453        4.5328302750
 H       -10.1939651781        5.7716331597        5.4150214817
 H       -13.4146313200        4.2194527336        6.8819195153
 H       -13.0647747715        6.0453794628        7.2036248741
 H       -11.7324539062        4.7269695537        7.3876077608
 H       -14.7133375863       12.2277900809        7.5564407324
 H       -13.7758190110       10.5510658832        7.3549734293
 H       -15.4301576572       10.6429286663        7.5641177601
 H       -16.3712771664       12.6031237446        6.1312073209
 H       -16.7422493242       11.3893093075        4.9181889448
 H       -15.8702636286       12.6045891982        4.3103621896
 Na       -8.4332913886        3.1686060782       -1.1112421822
