117

 C       -12.1642429873        4.4493877978       -5.3486876162
 C       -11.7594492669        4.7777892892       -6.7881603461
 O       -11.8450289216        5.9437389129       -7.0991353672
 C       -11.5323072627        3.5825677634       -7.7408982849
 C       -10.2216313359        3.0247942925       -7.1347861307
 O       -10.2938376220        2.2374971867       -6.2318608155
 C        -8.7901986583        3.5546356091       -7.4901794134
 C        -7.8161140456        3.5720865469       -6.2890302634
 C        -8.5335396633        4.2257704046       -5.0791137193
 O        -9.1302658446        5.2877183162       -5.2331839027
 C        -8.5127169993        3.4356445119       -3.6932598831
 C        -7.6258607638        4.3375536582       -2.7033554136
 O        -6.5349356920        3.9976232985       -2.2680794958
 C        -8.3962383740        5.6090348232       -2.1221612617
 C        -7.3910486262        6.3635219735       -1.2190251016
 C        -7.3732941089        5.9355609743        0.2498385203
 O        -8.2070466660        5.1376089583        0.6374778686
 C        -6.3916672693        6.6315829216        1.2297773002
 C        -7.3881411489        7.1669040498        2.2052675507
 O        -8.4399538655        7.5689053893        1.6975512711
 C        -7.0835688810        7.3483117762        3.7549360833
 C        -8.4217798217        7.2242332014        4.6782157933
 C        -9.1423679112        5.8911758084        4.3455970902
 O        -8.4839532437        4.8675226912        4.4734529092
 C       -10.7050328579        5.9596317517        4.4267576432
 C       -11.3803765136        4.4710899937        4.2001826391
 O       -10.8515868414        3.7035942146        3.4225976870
 C       -12.6993240253        4.0662576122        4.8768770347
 C       -13.2007316391        2.6774853238        4.5025019490
 C       -13.5016405717        2.7258471961        2.9982615164
 O       -13.5517969953        3.8409677979        2.5242814619
 C       -13.9267101612        1.5426558434        2.1097070888
 C       -12.7031124924        0.6829449630        2.0108289431
 O       -12.3297285235       -0.0134535202        3.0388816029
 C       -11.8438472765        0.4659871622        0.7203829087
 C       -10.6127963040       -0.3087091255        0.9562363890
 C        -9.4854980261        0.4999638323        1.6387319138
 O        -9.6281642667        1.6850638424        1.6307068256
 C        -8.0773639095       -0.0793353591        2.1870973652
 C        -7.7210338266        0.5829979224        3.5883484045
 O        -7.3770563491        1.7305174715        3.6358966032
 C        -7.7473130472       -0.3308283964        4.8349920716
 C        -8.1990480576       -1.6398773766        2.1605266101
 C        -7.0953857575        0.3745324315        1.0499843647
 C       -15.0627753753        0.7277661386        2.8187489982
 C       -14.4444044251        2.1076082762        0.7549006848
 C       -11.0709700145        6.5425998751        5.8814515992
 C       -11.3761444330        6.8736782826        3.3089790304
 C        -5.5459306419        5.4980627280        1.8134354965
 C        -5.5458783637        7.7368718931        0.5246358203
 C        -9.9421411777        3.1312957618       -3.1907120173
 C        -7.8059391713        2.0951218928       -3.7153059625
 C       -12.7222877697        2.5088169819       -7.5127206889
 C       -11.4962606472        3.9511181309       -9.2752286912
 H       -11.6294850130        5.0515467269       -4.6519391126
 H       -11.7128143743        3.4497243375       -5.1222627947
 H       -13.2903639783        4.5809648315       -5.3297068686
 H        -8.8948261127        4.5265819207       -7.9323299358
 H        -8.3130680848        2.8848038940       -8.2613063129
 H        -7.0253516823        4.2851302691       -6.6817483023
 H        -7.2417799899        2.6462850174       -6.0608219937
 H        -9.2060253268        5.3328896066       -1.5495776853
 H        -8.8065147553        6.2149644624       -2.9508048146
 H        -7.3977213170        7.4823897853       -1.2506196900
 H        -6.4207410575        6.2126037349       -1.6494415218
 H        -6.6232554066        8.2957475557        3.8858132336
 H        -6.3127914598        6.6809167058        4.0892663745
 H        -9.0107767086        8.1618590893        4.5216215291
 H        -8.1493665479        7.2453427269        5.7077284096
 H       -13.4174188562        4.8520023555        4.5602412372
 H       -12.5309285078        4.2107111608        5.9868677975
 H       -14.0298925253        2.3495336234        5.0777327964
 H       -12.4645766596        2.0169529327        4.9230901926
 H       -11.6352904852        1.4883965762        0.3811337319
 H       -12.5280791850        0.0393337049        0.0066195840
 H       -10.1609775062       -0.7629603642       -0.0101327579
 H       -10.8747198008       -1.2362498825        1.5401293785
 H        -7.1912305415        0.0911716539        5.6988979613
 H        -7.3548646682       -1.3220483216        4.6722841523
 H        -8.8415609758       -0.3407269709        5.1272735278
 H        -8.3188223409       -1.9078421124        1.1154743298
 H        -9.0726130717       -1.9570836847        2.8341770466
 H        -7.3548163603       -2.1958119326        2.3019962309
 H        -7.0032423881        1.5642862966        1.0552629523
 H        -7.3460990441       -0.0928073517        0.1235732307
 H        -6.0794771050        0.1320189284        1.2577726217
 H       -14.6855667707       -0.0434656567        3.5145586187
 H       -15.5094264429        0.1609556225        2.0178538171
 H       -15.9010476445        1.3153083886        3.1566309509
 H       -14.6795876623        3.1868208597        0.9802523047
 H       -15.3963611200        1.7845654190        0.5965636229
 H       -13.7239827794        1.8557965935       -0.0278772340
 H       -10.6706317771        7.5070841973        5.7505192878
 H       -10.5790003246        6.0148560046        6.7067074991
 H       -12.0702201350        6.5144191363        6.0869830430
 H       -11.4970660250        6.2788701216        2.4141962403
 H       -10.8604887158        7.7357299860        3.1436669992
 H       -12.2809366431        7.2928351925        3.6756923289
 H        -4.8637432545        5.7462967142        2.5210827000
 H        -4.8940911925        5.0520627853        1.0890047719
 H        -6.3838625790        4.8838024742        2.1729518301
 H        -5.1348009192        7.3206466927       -0.3572700227
 H        -4.7668240952        8.0733551626        1.1505120920
 H        -6.2740713999        8.5236907551        0.2573138974
 H       -10.4439639534        2.4474808972       -3.9028626182
 H       -10.6563919533        3.9698043590       -3.1333581507
 H        -9.9064004985        2.6755054611       -2.2644081621
 H        -8.3835815558        1.1986127515       -4.1021068208
 H        -7.5651001529        1.8876636902       -2.6315849610
 H        -6.8003401809        2.1260640047       -4.2099195669
 H       -12.4467252941        1.8487542011       -6.6944482311
 H       -12.8930517006        1.8168534084       -8.3322696471
 H       -13.6755836307        2.9076206076       -7.1254177083
 H       -11.0701754404        4.9445739408       -9.4333648669
 H       -12.5021866631        3.9049526481       -9.4959356382
 H       -10.9618864735        3.1537788169       -9.6981577636
 Na       -8.4399388780        3.5713106479        2.4567292941
