117

 C       -12.2123852362       12.6216879072        5.1270650507
 C       -13.1544469257       11.7720715450        4.3571791652
 O       -12.7769459909       11.3471454778        3.2831360196
 C       -14.2704738638       11.1336394962        5.1951590662
 C       -14.6918072745        9.7561201598        4.6269392977
 O       -15.8687011212        9.4839616547        4.3591480880
 C       -13.5581242549        8.7479246510        4.2818085158
 C       -14.0177119164        7.2249167382        4.7118268530
 C       -13.2653434960        5.9594421731        4.2584818394
 O       -13.7609176220        5.2724267304        3.4066301854
 C       -12.0349897272        5.5301640296        4.9926186157
 C       -11.6203531088        4.1769335645        4.4723407736
 O       -11.6017260459        3.1729748705        5.1233986649
 C       -10.9770262992        4.2297966951        2.9567802049
 C       -11.8995391920        3.3311596536        2.0365269821
 C       -11.2405164301        2.9705066793        0.6995875146
 O       -10.0685711027        3.3112927197        0.6598237535
 C       -12.0090841801        1.9331122587       -0.2744747554
 C       -11.4799052535        1.9647710859       -1.7267089458
 O       -10.9362436570        2.9566346180       -2.1440274610
 C       -11.6811400707        0.7550553279       -2.7245514045
 C       -10.7831962741       -0.5028807198       -2.4396185603
 C        -9.6411216592       -0.2142553251       -1.4513573854
 O        -9.1377265510        0.8817275138       -1.3232606477
 C        -8.9221533797       -1.4227554005       -0.6603502020
 C        -7.7623052534       -1.8575415284       -1.5864162622
 O        -7.8886296821       -2.8573613573       -2.1976470039
 C        -6.3968199332       -1.0358321112       -1.7084341822
 C        -5.7962169522       -1.2341668065       -3.1373125677
 C        -6.9051118602       -0.9594521621       -4.1675392143
 O        -8.0430299637       -0.9523031085       -3.8809555970
 C        -6.4675773085       -0.4805630315       -5.5834602087
 C        -6.2251149092        1.0428161767       -5.2647174311
 O        -5.1347043843        1.3220724462       -4.8406512214
 C        -7.1504217509        2.2028881093       -5.8281974738
 C        -6.5248613547        3.4483033905       -5.1904630261
 C        -6.8576849465        3.6277029326       -3.7151036612
 O        -7.7990333785        3.0192402997       -3.1488107808
 C        -6.1354824375        4.6853362034       -2.8548954451
 C        -7.1890257141        5.7325167852       -2.3144034947
 O        -8.2316760002        5.3976316494       -1.7922815630
 C        -7.0594113050        7.1533964369       -2.7230125007
 C        -5.5671472658        4.0747125472       -1.5202955857
 C        -4.9503977466        5.2498706669       -3.6226120296
 C        -5.1570810657       -1.1787814228       -5.9018453988
 C        -7.3895743952       -0.7032927974       -6.7397830248
 C        -8.2188639367       -0.9490438228        0.6882007969
 C        -9.9788824677       -2.5730177222       -0.4272247755
 C       -11.9560471433        0.5691750278        0.3280322343
 C       -13.4559852522        2.5067488919       -0.3131972764
 C       -10.8447972678        6.5150373934        4.8210547253
 C       -12.3541083251        5.4197642951        6.5687932178
 C       -13.9236694374       10.9424804648        6.7221214325
 C       -15.3670519977       12.1861826229        5.0206032194
 H       -11.4136342759       12.9308397387        4.4981320232
 H       -11.8453870610       11.9060934932        5.8861670764
 H       -12.6569132276       13.4441340280        5.7360561721
 H       -12.6039427033        9.0819836693        4.6887358561
 H       -13.3949951509        8.6462865344        3.2218676614
 H       -15.0986455460        7.2224760763        4.6898952327
 H       -13.7763704223        7.2425627378        5.8235914737
 H        -9.9155887737        3.8701700149        3.0032720244
 H       -10.9113799434        5.1338185177        2.4334279510
 H       -12.8267196477        3.8378135139        1.8183135733
 H       -12.1328555915        2.3912528554        2.5678558836
 H       -11.4028095863        1.2099705798       -3.7079871756
 H       -12.7312833153        0.3799520036       -2.7900252708
 H       -10.1372921614       -0.6629414007       -3.3668170889
 H       -11.2042758169       -1.4622063382       -2.2099899266
 H        -5.6921547193       -1.4984878861       -0.9981229059
 H        -6.6263103221        0.0000866800       -1.5215672545
 H        -5.5130598642       -2.2843888214       -3.1351947312
 H        -4.9715272847       -0.6193781374       -3.1730391045
 H        -8.2093324634        1.9093035969       -5.6325658106
 H        -6.9621952397        2.2399042931       -7.0035222090
 H        -6.9323035779        4.3066027935       -5.6191218630
 H        -5.5132971871        3.6052019921       -5.4982391040
 H        -6.1924843399        7.5320211190       -2.2321517233
 H        -7.8836736021        7.8023554647       -2.3009213138
 H        -6.9361817539        7.4693721678       -3.7171440510
 H        -6.4188892532        3.5540413763       -0.9675742741
 H        -5.3411408750        4.9303441734       -0.9442741859
 H        -4.7759501597        3.3150453453       -1.6505208493
 H        -4.2881572174        5.9451679392       -3.0980957997
 H        -5.2334666070        5.6188081599       -4.7013277912
 H        -4.2676626393        4.5073176590       -4.0049407010
 H        -4.2878026540       -0.8063459640       -5.5461435612
 H        -4.8582035600       -1.2160662313       -6.8825821539
 H        -5.2412285659       -2.2114135192       -5.6224053647
 H        -8.3115464286       -0.0402283090       -6.6342286050
 H        -7.6331039621       -1.6947177041       -6.7487678617
 H        -6.8759987803       -0.4767601350       -7.6952905587
 H        -8.6825560693       -0.0675495094        1.1136752463
 H        -7.1888632929       -0.5972817698        0.6718540697
 H        -8.4141805693       -1.7198744318        1.4119362900
 H       -10.2105429398       -2.9198964467       -1.4283052066
 H       -10.8783284161       -2.4102998756        0.1588674945
 H        -9.4760874046       -3.3360433781        0.0498540031
 H       -11.0031686464        0.0032073593        0.0860357303
 H       -12.7146468542       -0.1016909735       -0.1611943169
 H       -11.9180371440        0.4627039186        1.3726195320
 H       -13.9276172468        1.9734839998        0.5047534965
 H       -13.9915082476        2.4355474340       -1.2656470027
 H       -13.5360246409        3.6299060625        0.0302544064
 H       -10.8839672735        7.1889275433        5.6300317770
 H       -10.9592212890        7.2921250363        3.9137801135
 H        -9.8252734176        6.1891108619        4.7548249742
 H       -13.0976759947        4.8172512309        6.8630982701
 H       -12.5047273582        6.5564534207        6.9085013317
 H       -11.4660637516        4.9479401672        6.8489200676
 H       -13.7568247520       11.8713739620        7.2629891477
 H       -13.0254210886       10.3539852320        6.9277152808
 H       -14.8885433744       10.3501369871        7.0195587544
 H       -16.2534375432       11.7259783210        4.6730569470
 H       -15.1212053813       12.8811934359        4.2844495629
 H       -15.7027574140       12.5992190545        5.9691874478
 Na       -8.7420222083        3.1399020222       -1.0774504860
