117

 C       -12.0800365065       12.7324082571        5.0461743340
 C       -12.8306708941       11.5911759663        4.3710370159
 O       -12.6288785830       11.2047825067        3.2522731714
 C       -14.3761890462       11.1469052568        5.1163724335
 C       -14.6948538625        9.7466086814        4.4126337717
 O       -15.8983155930        9.4785917527        4.1234087130
 C       -13.5207091884        8.8512575143        4.2133068012
 C       -14.0263294169        7.3748115723        4.5924370006
 C       -13.2270865450        6.1006057175        4.1985886818
 O       -13.7516197695        5.3601093461        3.3972353152
 C       -11.8670379395        5.6709116454        5.0760938585
 C       -11.4035230291        4.2080715106        4.4257996211
 O       -11.6630678759        3.1203366479        4.9602504951
 C       -11.0169598474        4.1219630803        3.0094725849
 C       -11.9197263515        3.3880455567        2.0902879965
 C       -11.2087408676        2.9714078242        0.8064518320
 O       -10.0937973310        3.3412122522        0.5349249994
 C       -12.1023314312        2.0731220618       -0.2067384991
 C       -11.5018265870        2.0185990513       -1.7809815427
 O       -11.0888671054        3.0242875044       -2.3495456962
 C       -11.6167253227        0.7216183758       -2.7139151328
 C       -10.7246268300       -0.4871738163       -2.4459101441
 C        -9.5457147875       -0.2586453048       -1.5062904308
 O        -9.2338153017        0.8777335958       -1.2103184031
 C        -8.9515382683       -1.4421445661       -0.6608717149
 C        -7.6545251106       -1.9471260954       -1.5280957842
 O        -7.6924846755       -3.0706416335       -2.0046885784
 C        -6.4312952249       -1.0026126612       -1.6359823690
 C        -5.7954876249       -1.2423250130       -3.0219326068
 C        -6.8842728219       -1.0568022742       -4.0388268526
 O        -8.0961045982       -0.9961299788       -3.8139672807
 C        -6.4448783847       -0.5369024218       -5.5412232345
 C        -6.0739613354        0.9623451614       -5.2376112488
 O        -5.1105685725        1.3252007595       -4.5006241379
 C        -7.0326113347        2.1132188042       -5.7077330443
 C        -6.6563934415        3.4673341818       -5.1779031848
 C        -6.9197482849        3.5382194276       -3.7204089891
 O        -7.7855575559        2.8243191516       -3.2135629049
 C        -6.1631698509        4.6033915802       -2.8377360414
 C        -7.2197574918        5.7804634144       -2.3676268250
 O        -8.1164703511        5.4378245640       -1.6179406588
 C        -6.9785301379        7.2449351587       -2.6658624554
 C        -5.5130722135        3.9037452127       -1.5443586897
 C        -4.9936319375        5.2464879129       -3.6666107515
 C        -5.0474653383       -1.2086789566       -6.0032627349
 C        -7.6133137316       -0.7776961247       -6.5772700708
 C        -8.4897931628       -0.8724336952        0.6670711679
 C        -9.9480199014       -2.5372271672       -0.4756045140
 C       -12.0933509940        0.7041972176        0.4460061205
 C       -13.6957524981        2.4632187241       -0.2380861097
 C       -10.6609291985        6.6510148020        4.8493244410
 C       -12.2527251488        5.4064064101        6.5278863995
 C       -13.8573848218       10.9812477786        6.5456093735
 C       -15.4690394415       12.3041055602        5.1961899554
 H       -11.7480643649       13.5327381150        4.3926350221
 H       -11.2406726221       12.2509432768        5.5849487708
 H       -12.6947557840       13.0870279219        5.8006479113
 H       -12.5999185885        9.1728483636        4.7179493420
 H       -13.2797903053        8.7294540618        3.1334433790
 H       -15.0685559593        7.3625719777        4.3023862903
 H       -14.0700687560        7.4017583046        5.7177893759
 H        -9.9844185815        3.7801099054        2.9288015045
 H       -10.9660036109        5.1121580063        2.5358927844
 H       -12.8006511279        3.9700352074        1.7797668442
 H       -12.2641242178        2.4602608229        2.6148194224
 H       -11.4012322401        1.1220266642       -3.6364672156
 H       -12.7372755597        0.4105764133       -2.6731801059
 H       -10.2124546835       -0.9695675500       -3.3273747054
 H       -11.2147669016       -1.2831568612       -1.9563010483
 H        -5.7963663724       -1.2358506045       -0.8117102673
 H        -6.8289383809       -0.0299838504       -1.6059458452
 H        -5.4174506891       -2.2402680691       -3.0537830471
 H        -5.0326966512       -0.4886573240       -3.1668940175
 H        -8.0702113435        1.7120594914       -5.4108088042
 H        -6.9798452372        2.1839271781       -6.7836736016
 H        -7.1494818109        4.2191477718       -5.8275987737
 H        -5.6157069012        3.6720896197       -5.3863410776
 H        -6.0880652926        7.5946475571       -2.1544104215
 H        -7.7796659331        7.9157843356       -2.3089533839
 H        -6.6718818917        7.5183298771       -3.6724636891
 H        -6.2018284176        3.1145025194       -1.2024623119
 H        -5.3917197019        4.6669179504       -0.6795391480
 H        -4.5680689368        3.5026503321       -1.7986174760
 H        -4.3739900431        5.9506882420       -3.1061504266
 H        -5.2202709341        5.7327223246       -4.6304752070
 H        -4.2684592258        4.4624149508       -4.1491216855
 H        -4.1306699392       -0.6644025792       -5.7188341442
 H        -4.8498529634       -1.1741596868       -7.0357059741
 H        -4.8669151570       -2.1523091274       -5.6634715832
 H        -8.4207405536       -0.0593077856       -6.4796620594
 H        -7.9954980438       -1.8570640308       -6.4393074679
 H        -7.1607677705       -0.7463846547       -7.6059107410
 H        -9.2255375088       -0.1555401315        1.1127803875
 H        -7.7271604703       -0.1866970339        0.5877557018
 H        -8.2616951050       -1.5913036899        1.3901303437
 H       -10.3264951501       -2.6893328888       -1.5067179591
 H       -10.7996059400       -2.3946679521        0.2210024019
 H        -9.4487454878       -3.4142797359       -0.1119218967
 H       -11.1527280883        0.1903524329        0.3186685200
 H       -12.7736264783        0.0137998840        0.0359718246
 H       -12.1055906050        0.7276730011        1.5319364366
 H       -14.0326581760        2.3760945783        0.8567255796
 H       -14.2825582803        1.8424494294       -0.8547705409
 H       -13.8471589714        3.5141616402       -0.5287414753
 H       -10.3485665163        7.2267771246        5.7666592735
 H       -10.9783416148        7.4214710016        4.2355550358
 H        -9.7302180812        6.3406663320        4.4236112779
 H       -12.9287170940        4.5062824500        6.6537573519
 H       -12.7158341116        6.3045340658        6.8789415855
 H       -11.3515183930        5.0862913865        6.9583811654
 H       -13.4783880542       11.8569713230        7.0840264701
 H       -12.9546434924       10.2887388473        6.4921785842
 H       -14.6453543267       10.5083198279        7.0473238290
 H       -16.4250691622       11.8910716121        4.7728511227
 H       -15.2647461802       13.0597935997        4.5457704010
 H       -15.7097181465       12.5171567773        6.1913106220
 Na       -9.0573437666        3.1683537394       -1.3048237290
