117

 C       -12.0049570398       12.8362943321        4.9061829197
 C       -12.9219395039       11.7462912286        4.2661719913
 O       -12.4738093896       11.1002381322        3.3474823670
 C       -14.2171365771       11.2278645287        4.9910511980
 C       -14.6741768883        9.8490806721        4.2586238223
 O       -15.7813921173        9.6132497762        3.9578261516
 C       -13.5721139602        8.7928238996        4.1587281889
 C       -14.0336246581        7.4168767042        4.6187115819
 C       -13.1160844732        6.2118316556        4.2917979637
 O       -13.5569698886        5.4614627016        3.3987985030
 C       -11.8399425911        5.7141907824        5.0213963013
 C       -11.4984851993        4.2177979948        4.2624531709
 O       -11.7101891809        3.2589141260        4.9774378838
 C       -10.8624208809        4.1829768569        2.9051060805
 C       -11.9083475202        3.4738917878        2.0614036712
 C       -11.4142267350        3.0351328845        0.6869708584
 O       -10.2625568014        3.3154820932        0.4928728989
 C       -12.1455282069        2.1028532886       -0.2672501576
 C       -11.6592935171        2.0351075227       -1.7631840416
 O       -11.3288495741        3.0906234851       -2.3134969190
 C       -11.6864493363        0.7903804164       -2.6084945808
 C       -10.8299314925       -0.4273313714       -2.4082705701
 C        -9.5583879366       -0.2151423774       -1.4131699015
 O        -9.1944051527        0.9187494969       -1.1370555799
 C        -8.9552815862       -1.4475764476       -0.7415942395
 C        -7.5858089460       -2.0843626969       -1.3988511387
 O        -7.4975350319       -3.2696663437       -1.7300836258
 C        -6.5119578590       -1.0770572712       -1.5671006092
 C        -5.8759947727       -1.2262030752       -2.9702329969
 C        -6.8082248029       -0.9510626192       -4.0522897055
 O        -8.0348086283       -1.0461585183       -3.8219009789
 C        -6.3483324918       -0.5321639692       -5.4729883320
 C        -6.0246291536        0.9378008592       -5.1681099885
 O        -5.1889803341        1.1815158043       -4.3162799500
 C        -6.9736812210        1.9768678374       -5.7250783743
 C        -6.7543288413        3.4486290620       -5.2755506062
 C        -6.9877190142        3.4999081350       -3.6851438854
 O        -7.7204252747        2.7104310328       -3.1977768863
 C        -6.1851105121        4.6059845942       -2.8002228798
 C        -7.1230917144        5.7209937577       -2.2831804724
 O        -8.0239590241        5.3878332139       -1.5207092841
 C        -6.8281960237        7.1543877721       -2.5758189993
 C        -5.6077135462        3.8507509058       -1.6820617157
 C        -5.0606717436        5.2965110066       -3.6122788127
 C        -5.1060852642       -1.2418540807       -6.0226063014
 C        -7.5614569911       -0.8076141515       -6.2773035404
 C        -8.6794650923       -0.8738670209        0.7397619662
 C        -9.8468055312       -2.6970607233       -0.5031943971
 C       -12.2016730910        0.6713531387        0.4854876422
 C       -13.6274483367        2.5074487600       -0.2844242602
 C       -10.6919692176        6.6784301804        4.8974993529
 C       -12.1386894142        5.4301121720        6.4605000108
 C       -13.7949876218       10.7761035681        6.5309406288
 C       -15.3721342799       12.2138539914        5.1325836490
 H       -11.9289439256       13.6564615615        4.1452793273
 H       -11.0583265753       12.3584131422        4.9849425133
 H       -12.2630204366       13.3085015144        5.8338880099
 H       -12.6228262418        9.0094325301        4.6846348569
 H       -13.2989114551        8.6484362218        3.0771525966
 H       -15.0063242819        7.2071076362        4.0347599252
 H       -14.4054880683        7.5821985257        5.5886659615
 H        -9.8988155927        3.7298577048        2.9709033881
 H       -10.6405243736        5.2209161683        2.4871946632
 H       -12.8833582183        4.0195241832        2.0763748447
 H       -12.0004785868        2.5789331475        2.6902052042
 H       -11.4806829035        1.2100792754       -3.5865658030
 H       -12.7786326932        0.6369395454       -2.4758672703
 H       -10.3638924569       -0.8977913947       -3.2189072415
 H       -11.3653962530       -1.2044478178       -1.8345616880
 H        -5.8582721463       -1.2566982340       -0.7402194126
 H        -6.9788807433       -0.0889196450       -1.4649958710
 H        -5.5916135076       -2.2749194308       -3.0872552546
 H        -4.9655187693       -0.5308499952       -2.9283296810
 H        -7.8766937695        1.6597303697       -5.2374823848
 H        -7.0686131952        1.8245963782       -6.7350224395
 H        -7.4388231208        4.0659438553       -6.0284996286
 H        -5.7173061413        3.8259239130       -5.5157946427
 H        -5.9470979750        7.7654733701       -2.2913205461
 H        -7.6868069902        7.7692311750       -2.3620757715
 H        -6.6363005323        7.1745129258       -3.7411125432
 H        -6.2964188449        3.0644760709       -1.4739247709
 H        -5.4312791767        4.4297158548       -0.7369495986
 H        -4.5519844597        3.5097111666       -2.0432671588
 H        -4.5442025295        6.1113587719       -2.9715638657
 H        -5.2677157780        5.8609897738       -4.4702961754
 H        -4.2924021039        4.5961675461       -4.0067252217
 H        -4.0826777406       -0.8595556228       -5.7680697329
 H        -5.0364442061       -0.9709920597       -7.1072931824
 H        -4.9122657797       -2.3324175291       -5.8544072730
 H        -8.3184415516       -0.1489007439       -5.8736003278
 H        -7.9418371374       -1.8861597807       -6.1133248299
 H        -7.3851333449       -0.6632685933       -7.3570729041
 H        -9.5611088079       -0.6640756672        1.2846511485
 H        -8.3084408840        0.1642018467        0.6710754157
 H        -7.9904633824       -1.4107281825        1.3832158018
 H       -10.2947954765       -3.1209019473       -1.4001300567
 H       -10.7054270777       -2.2984082077        0.0727987638
 H        -9.3592475346       -3.4209914498        0.2684503330
 H       -11.2981519786        0.2915432878        0.8089774127
 H       -12.6065761204       -0.1173951027       -0.0551226863
 H       -12.6572376822        0.8676706882        1.4663152754
 H       -14.0137340218        2.9936597565        0.5989931615
 H       -14.2855508467        1.6007994575       -0.4982239374
 H       -13.7254471404        3.1167064015       -1.0852360093
 H       -10.2385269844        6.9650157760        5.8684791566
 H       -10.9410514317        7.5894594333        4.4771623492
 H        -9.8174853108        6.3694653916        4.3420419471
 H       -12.7747848041        4.4835134451        6.4816786287
 H       -12.7048050979        6.2298400800        6.7054672695
 H       -11.2289106420        5.2406201753        7.1211030009
 H       -13.3868955025       11.5734779690        7.1643184993
 H       -12.9911122147       10.0369056611        6.4893861208
 H       -14.7093530725       10.4143405198        6.8974537605
 H       -16.2149712190       11.7108376792        4.6315755271
 H       -15.3172213648       13.1368899411        4.4513599176
 H       -15.6579644847       12.3012943418        6.1648300325
 Na       -9.2375019199        3.3104441455       -1.6415309739
