117

 C       -12.2584394560       13.1237234011        4.5846757149
 C       -12.5769120375       11.7076374519        4.2747419228
 O       -12.1519528350       11.1009943493        3.2869208683
 C       -13.8331616595       11.1383390481        5.0486836895
 C       -14.4658070988        9.8380590640        4.0884150057
 O       -15.5508734542        9.8673834412        3.4621147072
 C       -13.5514643644        8.6082338235        3.9274580264
 C       -13.9312802202        7.3248627840        4.8333738454
 C       -13.1118773377        6.2668896047        4.1904678065
 O       -13.4110091105        5.7596973189        3.1321064025
 C       -11.7536148459        5.7319804768        4.9525292787
 C       -11.4914798549        4.3697527077        4.3023167652
 O       -11.7535148779        3.3811885437        5.0013514971
 C       -10.9376691603        4.3844729013        2.8111609065
 C       -11.8825482169        3.5059760604        1.9250759718
 C       -11.4301716306        3.0803413638        0.5943372815
 O       -10.3856300594        3.4047172736        0.0668639636
 C       -12.4128238387        2.0659740252       -0.2299358111
 C       -11.9252404491        2.1021877501       -1.6540339763
 O       -11.7330688560        3.1687584377       -2.2004267277
 C       -11.8711645047        0.7741704108       -2.5190877447
 C       -10.9895580675       -0.4694844001       -2.2126274933
 C        -9.7104144998       -0.3482250737       -1.3115607679
 O        -9.1474608828        0.7204339516       -1.2600761902
 C        -9.0681608589       -1.4874472987       -0.4509176721
 C        -7.6160734016       -1.9864805069       -1.0173809121
 O        -7.3676188189       -3.1544348555       -0.9220932039
 C        -6.3899169580       -1.0664050280       -1.3693063824
 C        -5.7924673495       -1.3995317503       -2.7577366845
 C        -6.8232250365       -1.2123093328       -3.7661812717
 O        -7.9659420257       -1.2506370141       -3.4070920593
 C        -6.4035304466       -0.6630583936       -5.2838844788
 C        -6.0751611603        0.9013771263       -5.1523034248
 O        -5.3041974872        1.3656911988       -4.3152357286
 C        -6.9428964577        2.0197767817       -5.8161378652
 C        -6.6639644226        3.4532367832       -5.3359780389
 C        -6.9114252877        3.4691620034       -3.8114684342
 O        -7.7519400666        2.7304218355       -3.2426603436
 C        -6.1067290831        4.5875445228       -2.8355144562
 C        -7.0802274162        5.5850214349       -2.1924702280
 O        -8.0114015599        5.1441876991       -1.5202199154
 C        -6.9057895373        7.0976989191       -2.3612579290
 C        -5.5419528047        3.6052824062       -1.6922503845
 C        -4.9317976775        5.1288051689       -3.6682088374
 C        -5.1222272005       -1.3867520364       -5.8130523288
 C        -7.4951522074       -0.7782314941       -6.4104924866
 C        -8.5973802615       -1.3182621477        0.9574150730
 C        -9.9835098787       -2.7683864480       -0.5818045716
 C       -12.4682129523        0.7127683106        0.4665144800
 C       -13.9178535516        2.6212214752       -0.4325938625
 C       -10.6843699928        6.8931850946        4.8699888380
 C       -12.1160579256        5.6301373294        6.5233356096
 C       -13.6627353370       10.6173929384        6.4416360348
 C       -15.0195836290       12.2795014975        4.9476854638
 H       -13.0982677353       13.7109892737        4.2690137697
 H       -11.2072704514       13.5395025566        4.3871144781
 H       -12.4051523496       13.1895276695        5.6798330629
 H       -12.5005401731        8.7637230362        4.0753611404
 H       -13.7252290139        8.2471686629        2.9258109419
 H       -14.9039963265        7.0160826137        4.5761885907
 H       -13.9851323724        7.6100948370        5.9547328507
 H        -9.8507074459        4.0884206351        2.8741483954
 H       -10.9316921475        5.3750262061        2.4456870600
 H       -12.8255516622        3.9851727641        1.7896547362
 H       -12.0010314045        2.6483502133        2.5845041761
 H       -11.5167222468        1.2148018094       -3.4491053186
 H       -12.9691769334        0.5693022340       -2.5084209853
 H       -10.5259684322       -1.0224673913       -3.0991594443
 H       -11.5609966696       -1.1538316004       -1.6175634061
 H        -5.6479389338       -1.2799003882       -0.5167644754
 H        -6.6065477870        0.0351709254       -1.3718982410
 H        -5.4309455090       -2.4509142067       -2.6186811372
 H        -4.9678369642       -0.7655699364       -2.7455336048
 H        -8.0178061619        1.7924774483       -5.4532168870
 H        -6.8051604065        1.7701490739       -6.9140001788
 H        -7.4535691550        4.0432414521       -5.7568994773
 H        -5.7190900875        3.8949159286       -5.6592174144
 H        -5.8324225664        7.3169613651       -2.1345511747
 H        -7.4621803747        7.6690223716       -1.5428657314
 H        -6.7765493811        7.5867981340       -3.2953781979
 H        -6.3733012078        3.4533110588       -0.9433231906
 H        -4.6233485097        4.0518815774       -1.2424348192
 H        -5.0429578830        2.8338049217       -2.0993596510
 H        -4.3494601871        5.8341539326       -3.2141870505
 H        -5.2019771127        5.8721547635       -4.4959579936
 H        -4.3970307541        4.2075853067       -4.0130084756
 H        -4.3683287477       -1.6635537498       -5.0567484328
 H        -4.5219507988       -0.8260167268       -6.5484171898
 H        -5.2223719944       -2.3739745840       -6.1450586904
 H        -8.5013958653       -0.7051627308       -6.0798989738
 H        -7.4355154945       -1.6839006919       -6.9972713821
 H        -7.2154421200       -0.0492406100       -7.1143628486
 H        -9.3993853926       -1.5749130384        1.7704431409
 H        -8.3700102132       -0.2520121366        1.1966624164
 H        -7.6288067860       -1.8196926952        1.2219707360
 H        -9.8256625106       -3.1871429832       -1.5794914331
 H       -11.0614157493       -2.5422619762       -0.6154994873
 H        -9.8083996814       -3.4774275988        0.1395789728
 H       -11.6002085367        0.4756633733        1.1612588210
 H       -12.3983391115       -0.1549275766       -0.2315631015
 H       -13.3246571829        0.6348545131        1.1289489161
 H       -13.9748241813        3.3795366915        0.4246866718
 H       -14.7533830723        2.0273449704       -0.2430694499
 H       -13.9535041518        3.0999960386       -1.4670530505
 H        -9.7793929516        6.8106337831        5.5340507212
 H       -11.1240024056        7.8620378090        5.0953760030
 H       -10.1774448317        7.0836189355        3.9063982901
 H       -13.0289717295        4.9583919481        6.5858536582
 H       -12.3316752940        6.6368991846        6.9522759355
 H       -11.2440032220        5.1967719392        6.9999342149
 H       -13.4285586896       11.5091838684        7.0339117510
 H       -12.7538087034       10.0080869953        6.4172002180
 H       -14.6032399287       10.2055999704        6.8081430276
 H       -15.9412606384       11.9741992673        4.3702650434
 H       -14.7172688064       13.0141988388        4.2917498740
 H       -15.2383339923       12.6650411906        5.9745005722
 Na       -9.4847241418        3.5548441915       -2.0949687281
