117

 C       -12.2523611261        4.4347719176       -5.3284092617
 C       -11.9067541493        4.7733130828       -6.8362204186
 O       -11.7991192524        5.9193728622       -7.2033534111
 C       -11.5295351743        3.5068888845       -7.7749020360
 C       -10.1921832601        2.9193142539       -7.1019086550
 O       -10.3027502491        2.0537429603       -6.2623883277
 C        -8.8647181817        3.5062526798       -7.5512234722
 C        -7.8658083169        3.5253625690       -6.3534137250
 C        -8.5339622203        4.0922729626       -5.1505907279
 O        -9.2572998360        5.0660790141       -5.1828926525
 C        -8.4896473837        3.3667541764       -3.6606759842
 C        -7.7728001601        4.2671983909       -2.6282817913
 O        -6.6334322485        4.0027679893       -2.4077053275
 C        -8.4518610120        5.4830643251       -2.1413364426
 C        -7.5633839413        6.3580366590       -1.3257825170
 C        -7.4838293745        5.8803752160        0.1126895337
 O        -8.1956572271        4.9899731267        0.5267066999
 C        -6.4169965375        6.6336638128        1.1380578032
 C        -7.4332898354        7.3051190352        2.1691188024
 O        -8.5647570253        7.5431853655        1.8252934815
 C        -7.1547792323        7.5435352385        3.6715571530
 C        -8.4038762513        7.2499706581        4.5708850764
 C        -9.1054429785        5.8847398227        4.4798541297
 O        -8.5830116210        4.8193225442        4.5303597258
 C       -10.6452865001        5.9981013359        4.4206739100
 C       -11.2815032132        4.5037741285        4.2411964590
 O       -10.7568094081        3.7685430130        3.4478566097
 C       -12.5368662033        4.0762818769        5.0336443540
 C       -13.2057390918        2.7573815788        4.5687830500
 C       -13.5450822750        2.8419183495        3.1066361401
 O       -13.5180071153        3.8951822594        2.5112884981
 C       -13.9179716606        1.4914642978        2.1528935764
 C       -12.6311603692        0.5657674863        2.1212443757
 O       -12.2218549544        0.0054581370        3.1445054958
 C       -11.7906313663        0.3736127071        0.7421874694
 C       -10.5153277508       -0.2992576609        1.0470367994
 C        -9.4590675736        0.6262376769        1.6928328358
 O        -9.7594663307        1.8207696699        1.8274659627
 C        -8.1027594874        0.0004300269        2.1007606010
 C        -7.6068784254        0.5543509646        3.5968659435
 O        -7.2295333256        1.7327939511        3.6030477479
 C        -7.6983356437       -0.2278773474        4.8300776109
 C        -8.1173166847       -1.5361563315        2.0564014384
 C        -6.9815315770        0.5894081822        1.1983777620
 C       -15.0378608457        0.6393270780        2.8155517019
 C       -14.4482112594        2.1149461886        0.8041131727
 C       -11.0274807882        6.5715165948        5.7980179824
 C       -11.2796138948        6.8904342918        3.3516481270
 C        -5.3897614517        5.6333296412        1.7810657387
 C        -5.5976173078        7.7317112649        0.3788064196
 C        -9.8904082096        3.2238347192       -3.1745005692
 C        -7.7127445339        2.0535510822       -3.7898669100
 C       -12.6811039566        2.4467814793       -7.6371303378
 C       -11.4451299015        3.8230123354       -9.3373556122
 H       -11.8592437130        5.2414450471       -4.6904547912
 H       -11.4435184802        3.7625648547       -5.1352916140
 H       -13.3203791217        4.1442793105       -5.0848951115
 H        -9.1931066429        4.4695451578       -8.0143074650
 H        -8.3269553739        2.8804244639       -8.3537737042
 H        -6.8595668850        3.9095511784       -6.6430960698
 H        -7.6776459171        2.4972884236       -6.0744923976
 H        -9.2769675464        5.2090069551       -1.4661381598
 H        -8.8975541703        5.8803185668       -3.0191433830
 H        -7.7348548599        7.4277521692       -1.3081635061
 H        -6.5340716789        6.3308576730       -1.7739200930
 H        -6.8760766941        8.5583708802        3.8677186162
 H        -6.2440066174        6.9830183261        4.0176045198
 H        -9.0592518568        8.0985826497        4.3653033061
 H        -8.0960594058        7.4512962913        5.5868090022
 H       -13.2879539981        4.9046360947        4.9813702012
 H       -12.1219529645        4.0773680654        6.1187921012
 H       -14.0677883601        2.4985540387        5.1773619111
 H       -12.5968962250        1.8968995982        4.8771151381
 H       -11.6038408670        1.3667479861        0.3188715614
 H       -12.5169336975       -0.1504298377        0.0449238819
 H       -10.1248523406       -0.7839533465        0.2060636896
 H       -10.6782715990       -1.1161495806        1.7507477409
 H        -7.1000123639        0.2809660613        5.6073252351
 H        -7.2417822290       -1.1936120544        4.7132148315
 H        -8.7286416095       -0.3228724470        5.1165686362
 H        -7.9061860087       -1.9124840184        1.0868393937
 H        -8.9651575015       -1.9921528510        2.5436242196
 H        -7.1334050290       -1.9033017266        2.4482901490
 H        -6.8811801518        1.6573722947        1.3003051839
 H        -7.1169607915        0.2202676235        0.1509299149
 H        -6.0086552587        0.3090458143        1.5322082831
 H       -14.5096221640        0.0172443464        3.5697287222
 H       -15.4439357088       -0.0372873256        2.1010934711
 H       -15.8533302455        1.1991192871        3.2244383488
 H       -14.7872352305        3.1260830941        1.0191225284
 H       -15.3959595375        1.6353326303        0.5674979682
 H       -13.6851835501        2.0378725318        0.0887542629
 H       -10.4850583240        7.4831685961        5.7634099644
 H       -10.6476266786        5.9182299962        6.5000887890
 H       -12.0907670494        6.6975872638        6.0231690498
 H       -11.0855910827        6.6002514975        2.3669070909
 H       -10.9376515520        7.8923445293        3.5839940357
 H       -12.3111396960        7.0432200343        3.5643276175
 H        -4.5833754467        6.1684716662        2.3732639786
 H        -4.7301271438        5.1496720434        1.0401382286
 H        -5.9503672339        5.0401699353        2.4638775655
 H        -5.2001862923        7.4115223395       -0.5185012001
 H        -4.7823474349        7.9984289378        1.0546086027
 H        -6.2662239097        8.6240491881        0.3174683155
 H       -10.5758878469        2.7100123896       -3.8591933483
 H       -10.4455979211        4.0887812391       -2.9497726895
 H        -9.7913713739        2.5848115321       -2.2901546806
 H        -8.1545355504        1.5000185278       -4.7022152759
 H        -7.8640074721        1.3499832008       -2.9351270053
 H        -6.6276890929        2.2018522692       -3.9860643847
 H       -12.5767574506        1.8399898626       -6.7241037339
 H       -12.6410997022        1.7106991269       -8.4323120022
 H       -13.7648544550        2.8261709836       -7.4725432955
 H       -10.9579878128        4.7575664003       -9.4039847906
 H       -12.4779923172        3.8206604604       -9.7225142373
 H       -10.8444188051        2.9567439696       -9.7070302986
 Na       -8.7137504299        3.6923807647        2.5434852521
