117

 C       -12.2700519166       13.6011103382        3.3441027783
 C       -12.0704551691       12.1561177813        3.9967296447
 O       -11.1307055423       11.4369402758        3.6815206258
 C       -13.3929227245       11.4078410981        4.6256998487
 C       -13.9703268465       10.3927526150        3.4467176025
 O       -14.9335060842       10.6935049934        2.6934204404
 C       -13.1533337153        9.1970228968        3.0736642013
 C       -13.2988664095        8.0140739847        4.0475624508
 C       -12.8169090188        6.5295911723        3.7842451468
 O       -13.6273920510        5.9165120752        3.1024695921
 C       -11.5561626162        5.9373690260        4.5754299299
 C       -11.2238859587        4.4885208874        4.0726149562
 O       -11.0985756349        3.5279752533        4.8747228151
 C       -11.2043054854        4.2301117918        2.5200479894
 C       -12.1770102683        3.1653534040        1.9683829665
 C       -11.7961253575        2.8695456046        0.4245809273
 O       -10.7361677905        3.1574215442       -0.0180682042
 C       -12.8828567420        2.1814160904       -0.5061924770
 C       -12.1018138977        1.8691100205       -1.7397588583
 O       -11.4728851633        2.7135651780       -2.3300600643
 C       -12.1117360897        0.3579701076       -2.2980164226
 C       -11.4339960835       -0.8133180653       -1.5511686928
 C       -10.0883991741       -0.4439260526       -0.9129592919
 O        -9.6470723255        0.6997507148       -0.9349277480
 C        -9.3111512603       -1.4856298644       -0.0511976323
 C        -7.8370537146       -1.6545381204       -0.4320296363
 O        -7.2210557267       -2.6720296115       -0.0522640752
 C        -6.9221590817       -0.4728563863       -0.8045100558
 C        -6.0789188478       -1.0506794628       -2.0220420542
 C        -7.0218998932       -1.1045144546       -3.2636711412
 O        -8.2315370102       -1.1286632342       -3.2249610188
 C        -6.3852818751       -0.8731918995       -4.7732941564
 C        -6.0205825122        0.7323670797       -4.8201525885
 O        -5.1600182855        1.1436040874       -4.0329161776
 C        -6.5972392937        1.6025247782       -5.8984353809
 C        -6.4613251106        3.1091875965       -5.6017991514
 C        -6.9741400905        3.2461059219       -4.1176874422
 O        -8.1715996773        2.9968586207       -4.0436534865
 C        -6.3040964070        4.1858634921       -2.9897285089
 C        -7.1395364773        5.1856718434       -2.1488722554
 O        -8.2058233061        4.9140604940       -1.6810321675
 C        -6.5310332355        6.5350835258       -1.7226194958
 C        -5.9001302328        3.0767785505       -1.9526941886
 C        -5.0732561747        4.7849424559       -3.5588495522
 C        -5.1317910009       -1.8043134715       -4.8525968823
 C        -7.4888721888       -1.4633413466       -5.6743443891
 C        -9.2517974969       -0.8255840963        1.4416030492
 C        -9.9803985545       -2.9330244410       -0.1513227674
 C       -13.5151293302        0.9271913412        0.1499108441
 C       -14.2319731525        3.0751931843       -0.7172567323
 C       -10.3575935033        6.9024673011        4.3573626027
 C       -12.2227745991        5.6959718160        6.0630184100
 C       -13.1056621640       10.5927329082        5.9948870978
 C       -14.5431960927       12.4649350965        5.0941262340
 H       -13.0870365858       13.4265483938        2.7249725763
 H       -11.3629433499       13.9227747490        2.7876895838
 H       -12.5017385548       14.3311240525        4.0644993869
 H       -12.0673818557        9.4611997603        2.9579748098
 H       -13.6084431250        8.9633350429        2.1098193771
 H       -14.3296681756        7.9750916449        4.3222573453
 H       -12.6999014975        8.3704248903        4.9313623444
 H       -10.1935803298        3.8186012577        2.2549008682
 H       -11.3726866863        5.1338243489        2.0107206356
 H       -13.0878939971        3.7196004806        2.1749107499
 H       -12.2340406996        2.1953543778        2.5242620107
 H       -11.5469213613        0.5616189556       -3.2769271009
 H       -13.1013459724        0.0723229428       -2.6418047482
 H       -11.3996440177       -1.6269492662       -2.2764035807
 H       -11.9730402351       -1.1659882364       -0.6799288513
 H        -6.4460212097       -0.2183035875        0.1007341728
 H        -7.3191520150        0.4341409675       -1.1397176183
 H        -5.4839871532       -1.9321378567       -1.6352930737
 H        -5.3292698756       -0.2993110642       -2.1993386771
 H        -7.6484019772        1.4061217179       -6.0210110923
 H        -6.1286039073        1.3298576957       -6.7549501493
 H        -7.1759683008        3.6561595332       -6.2861430343
 H        -5.3511604357        3.3758085834       -5.6987265347
 H        -6.4066878953        6.6726548703       -0.6833798407
 H        -7.2502237896        7.2893395014       -1.8613889758
 H        -5.5236848405        6.7642718356       -2.0143609089
 H        -6.8331598737        2.4662056414       -1.8672278673
 H        -5.6548998486        3.6348365810       -1.0106249498
 H        -5.0592798181        2.5512473349       -2.2997570028
 H        -4.5006817026        5.1633009750       -2.7908423001
 H        -5.4518960789        5.5430138210       -4.2951289601
 H        -4.4287138069        4.0504896301       -4.0950720941
 H        -4.4686743112       -1.5988860617       -3.9477836669
 H        -4.4013735763       -1.6475735290       -5.7492789695
 H        -5.3626180473       -2.8356667531       -4.9389879307
 H        -8.4683030459       -1.3900464345       -5.2030453751
 H        -7.2250081519       -2.5595029248       -5.8893906251
 H        -7.6481785921       -0.9890200121       -6.6664549451
 H        -9.9090296730       -1.2959880647        2.1749634949
 H        -9.5156827183        0.1917612221        1.3570075024
 H        -8.2910017909       -0.7674036533        1.8967748005
 H        -9.6573330209       -3.4361954505       -1.1042775881
 H       -11.1226624994       -3.0045619507       -0.0326619772
 H        -9.6328793432       -3.5892354061        0.5868725019
 H       -12.7671990114        0.1767229418        0.4577735684
 H       -14.3464310201        0.3609378146       -0.2365169952
 H       -13.9133152242        1.3570688764        1.0726527604
 H       -14.3982735918        3.8427439343        0.0909446488
 H       -15.0205884551        2.4475288782       -0.8573072915
 H       -14.0823627491        3.7093657930       -1.5654746257
 H        -9.8358438169        6.9541053893        5.3600011559
 H       -10.4741469911        7.8545042594        4.0418865944
 H        -9.6546045774        6.5427776246        3.6234127894
 H       -13.0225829684        4.7956082157        5.8824453838
 H       -12.7267022390        6.5450560122        6.2829388803
 H       -11.4934388063        5.4419311674        6.8823684126
 H       -12.9973925216       11.4344264071        6.6355421572
 H       -12.1401822073       10.0857315268        5.8092199063
 H       -13.8824008425        9.8871508898        6.3315564227
 H       -14.1950912948       13.5398511456        5.2462303889
 H       -15.1806998328       12.1549868557        5.8474808580
 H       -15.1675557936       12.4121283468        4.2359669584
 Na       -9.1118511419        2.9655297373       -1.6928921877
