117

 C       -12.2496806268       13.4400757372        2.5334578903
 C       -11.7682545710       12.3279197483        3.6209343330
 O       -10.6320850525       11.9758715316        3.7449149490
 C       -13.0390738687       11.5514849980        4.4128073969
 C       -13.4728535166       10.4296829248        3.4134201756
 O       -14.3456264644       10.7801635955        2.6667672228
 C       -12.8598872394        9.0253698536        3.2993559268
 C       -13.6087988195        8.0141432248        4.1654361199
 C       -13.0329748223        6.6361428383        3.7371084683
 O       -13.3603124963        6.3842221003        2.5619310598
 C       -11.7239146127        6.0137003152        4.5146238494
 C       -11.4585631993        4.6519591246        3.8897094075
 O       -11.1887996211        3.6697688275        4.5901899190
 C       -11.2424847793        4.4245887900        2.3493905958
 C       -12.1002235228        3.3711398021        1.7097975747
 C       -11.5732262897        2.8047592669        0.3675718968
 O       -10.3851563937        2.8701163201        0.1828317096
 C       -12.7503031606        2.2706325045       -0.6451327258
 C       -12.1695970541        1.4163362808       -1.9114265740
 O       -11.7392874757        2.0290160802       -2.8487249403
 C       -12.3027214897       -0.1841072598       -2.1742803945
 C       -11.3428552407       -1.1181574846       -1.5108376976
 C       -10.1352929073       -0.6470557528       -0.7165497622
 O        -9.7220819342        0.4901200111       -0.9527069414
 C        -9.5329272024       -1.4393459225        0.4747290438
 C        -8.0105777213       -1.5940358262       -0.1018748251
 O        -7.6467213122       -2.7613136664       -0.2266015031
 C        -7.1388362423       -0.3939693246       -0.4765461866
 C        -6.2116176235       -0.7367061699       -1.7000861440
 C        -7.1144049586       -0.8009471132       -3.0294107540
 O        -8.3054283478       -1.0369370794       -3.0888212966
 C        -6.2656218332       -0.9143282925       -4.4838893153
 C        -5.9611241188        0.5182769505       -4.7365755991
 O        -4.9267114837        1.0057598208       -4.2341849479
 C        -7.0173011601        1.4088505817       -5.5932044976
 C        -6.6725390030        2.9224888781       -5.4446153971
 C        -7.1250319622        3.2395525156       -3.9424697361
 O        -8.2878306251        2.9081594822       -3.6549750562
 C        -6.2527571900        3.9472515548       -2.7956000538
 C        -7.1544373332        5.1060588209       -2.1838980706
 O        -8.2560192668        4.7890649457       -1.8465403597
 C        -6.7578982517        6.5046874119       -2.2169657651
 C        -5.9300921414        2.9363426903       -1.6211056939
 C        -4.9020975198        4.5083598927       -3.3826205041
 C        -5.2749797442       -2.1965921450       -4.2037128290
 C        -7.3085647324       -1.5517783771       -5.3987144499
 C        -9.4167812578       -0.7185083261        1.8403181769
 C       -10.0531875530       -2.8532731103        0.6486196705
 C       -13.7948946039        1.4371726763       -0.0136616720
 C       -13.3542982700        3.6187031465       -1.0818447715
 C       -10.5213469436        6.9268309756        4.1243030196
 C       -12.0821801676        5.9650727237        6.0508650833
 C       -12.7158433247       11.0593849620        5.7251123875
 C       -14.2768722350       12.5430063089        4.6219818315
 H       -13.1753429232       12.9912719705        2.1091582818
 H       -11.4799722742       13.6404412069        1.7404409823
 H       -12.4077199005       14.3745576612        3.0632453913
 H       -11.7522180919        9.0684606643        3.3674136839
 H       -13.0573827945        8.7412529813        2.2576383577
 H       -14.6219079363        8.0235368653        3.8990860724
 H       -13.3800072654        8.1685563696        5.2513352858
 H       -10.1992990763        4.0259944583        2.2531644548
 H       -11.3744145933        5.3448839353        1.8904364063
 H       -13.0753470651        3.8279273693        1.6287800626
 H       -12.2829071487        2.5753620585        2.4734270805
 H       -12.3058377040       -0.1645162393       -3.2685071638
 H       -13.3632109049       -0.3959052628       -1.9960836655
 H       -10.8590386401       -1.8697732565       -2.1780617592
 H       -12.0298647588       -1.6805374304       -0.8814330554
 H        -6.6158112991       -0.0774806354        0.4174599350
 H        -7.7736756900        0.4236447876       -0.7206675054
 H        -5.6537953003       -1.6747274568       -1.4344727094
 H        -5.4494671661        0.0048092064       -1.8245425602
 H        -7.9411935064        1.3245788177       -5.0052912450
 H        -7.2259962891        1.1093565349       -6.4998979294
 H        -7.3535719001        3.5771097763       -6.0104496954
 H        -5.5924251664        2.9892121896       -5.6091642442
 H        -6.1359730400        6.9117938387       -1.4818999188
 H        -7.5900500258        7.1053545596       -2.1309306021
 H        -6.2383557354        6.7513944274       -3.2332141351
 H        -6.8141067783        2.5148341261       -1.2254225085
 H        -5.5117893062        3.6671103373       -0.9023102815
 H        -5.3920584576        2.0967788959       -2.0433148495
 H        -4.4518275378        4.8581126150       -2.5031619463
 H        -4.8435950831        4.8261186622       -4.3253719984
 H        -4.3575443026        3.5188830785       -3.5509476923
 H        -4.3482178776       -1.9454443190       -3.7473214052
 H        -4.9376413319       -2.6474320001       -5.1206753229
 H        -5.8989024666       -2.7898755887       -3.5602838340
 H        -8.0778627896       -0.9099041943       -5.6562597527
 H        -7.8269369143       -2.4072705245       -4.8075252352
 H        -6.9720909335       -1.9305064474       -6.3505380854
 H       -10.4354114491       -0.7354165290        2.3912564028
 H        -9.4021311883        0.3175321744        1.6448412609
 H        -8.6927157666       -1.1357045730        2.5431317544
 H        -9.7915716093       -3.5205003294       -0.1728997675
 H       -11.1506018566       -2.8640747290        0.6858144912
 H        -9.8711774826       -3.2552543424        1.5944009595
 H       -13.5696618768        0.9712409267        0.9774038943
 H       -14.2750505935        0.7443475281       -0.7130060201
 H       -14.6220414874        2.1590611590        0.3723108086
 H       -14.1129243488        4.1016352216       -0.3857906546
 H       -13.8319737240        3.4154953813       -2.0492754767
 H       -12.6831010258        4.3845785446       -1.2141242828
 H        -9.6316039250        6.2358941050        3.9281004729
 H       -10.1926040622        7.5986557996        4.8452681961
 H       -10.6676611954        7.4344280250        3.1882926432
 H       -13.0839738750        6.1907076281        6.2167439022
 H       -11.5259044072        6.7040407733        6.7001191745
 H       -12.0161429642        4.8719969694        6.3561805715
 H       -12.1979620253       11.8987927342        6.1580950392
 H       -12.0778697289       10.1152088882        5.8046336936
 H       -13.6704342505       11.0119676864        6.1233168939
 H       -14.2314014093       13.2070565560        5.4954431129
 H       -15.0293397041       11.8377259322        4.8876217881
 H       -14.6007161377       13.0401790915        3.8074249855
 Na       -9.7372153142        2.9792343237       -1.9004118864
