117

 C       -12.3695833908        4.4484545584       -5.4777384395
 C       -11.8896485588        4.7273191294       -6.8875788090
 O       -11.7930414034        5.7971347144       -7.3984763588
 C       -11.5980770897        3.3641240803       -7.7524936529
 C       -10.2923513936        2.8423494980       -7.1787959110
 O       -10.2501128604        1.9439922729       -6.3460536480
 C        -8.9818998994        3.5040431378       -7.6066521291
 C        -7.9694444638        3.3888603593       -6.4053600836
 C        -8.7032144317        3.9376621730       -5.1203764981
 O        -9.3349586182        4.9689940090       -5.1473401521
 C        -8.5094544551        3.1551412047       -3.7561433771
 C        -7.6931936285        4.2668645173       -2.7566587112
 O        -6.5595592406        4.0714200055       -2.3770527609
 C        -8.5364315776        5.4730206245       -2.1602729329
 C        -7.6941360906        6.3447847521       -1.2982834991
 C        -7.4219224952        5.8261326704        0.0828219187
 O        -8.0654863281        4.8603253618        0.4876212727
 C        -6.5416837899        6.6369959052        1.1361897513
 C        -7.5729525320        7.2802164011        2.1925789640
 O        -8.6926503832        7.5963966535        1.8333885048
 C        -7.1149679829        7.5548483779        3.5958680886
 C        -8.2999378802        7.3263734582        4.4594964183
 C        -9.0976857019        5.9601877616        4.4245566550
 O        -8.4467068860        4.9031508334        4.5953286055
 C       -10.6852317236        6.0225068516        4.5316069247
 C       -11.2624590510        4.5521529617        4.3186451107
 O       -10.8031218460        3.7887702719        3.4901881286
 C       -12.3842471720        4.0762922286        5.2044784958
 C       -13.0864341301        2.8132931601        4.5428620416
 C       -13.5336621485        2.9164533470        3.0996902403
 O       -13.5013449730        3.9691114791        2.5069917016
 C       -13.8774752632        1.5351268834        2.2803943718
 C       -12.5760780301        0.6297168890        2.1833878785
 O       -12.2155007323        0.1121689428        3.1411997719
 C       -11.8228055610        0.3472053891        0.8683574883
 C       -10.4452150196       -0.3221051811        1.1591527792
 C        -9.4289269293        0.6798839841        1.7903078932
 O        -9.7815978882        1.8393215304        1.9332149167
 C        -7.9863665418        0.1242806789        2.0982489807
 C        -7.6410965826        0.6807362727        3.5428474624
 O        -7.1942796031        1.8269932859        3.5803400009
 C        -7.7023442117       -0.2070846458        4.7559413203
 C        -7.9375485355       -1.3702653080        2.0626467583
 C        -6.9151841223        0.7495669343        1.1963970536
 C       -14.9801579293        0.6370088017        2.9445820700
 C       -14.3755461261        1.9419155076        0.8465904447
 C       -11.1186720533        6.5792113773        5.9336653334
 C       -11.1945213949        6.8596885731        3.3112024214
 C        -5.4545524901        5.7393016183        1.7303130483
 C        -5.7442376085        7.7771323199        0.3110512075
 C        -9.9615996300        3.0669506995       -3.2059564507
 C        -7.6854785854        1.8527964390       -3.8364637055
 C       -12.6736095011        2.3582879399       -7.6808151817
 C       -11.3249452426        3.8235500088       -9.1847821133
 H       -12.4956067023        5.4173185014       -4.9307516505
 H       -11.6946632978        3.8908136606       -4.8608313412
 H       -13.3351264271        4.1063112189       -5.7266158214
 H        -9.2627105096        4.5882627494       -7.8250419761
 H        -8.5324916195        3.0873042024       -8.5207471086
 H        -7.1718507532        4.0758996071       -6.5975896521
 H        -7.4501205729        2.4501996425       -6.3007578105
 H        -9.4075203583        5.0923401456       -1.5101806808
 H        -8.9906430327        5.9872333849       -3.0039295353
 H        -8.0944032477        7.3340365151       -1.0497987875
 H        -6.7816686649        6.6350063506       -1.8846590040
 H        -6.6963227623        8.6002305010        3.7436150368
 H        -6.2441422051        6.9146323020        3.8553014335
 H        -8.9019897719        8.1826398602        4.3205449549
 H        -7.9957523805        7.4138049776        5.5432687147
 H       -13.1703172889        4.8353076275        5.3675148023
 H       -11.8938313734        3.9113849039        6.1610907594
 H       -13.9806859062        2.5972020819        5.1890191967
 H       -12.5817157628        1.8619854934        4.7812308565
 H       -11.6505526257        1.2129848803        0.1997248506
 H       -12.5732101029       -0.3204410887        0.3605245970
 H       -10.0517545098       -0.5950661622        0.2331418576
 H       -10.4773432768       -1.1914480777        1.7272775194
 H        -7.1054111078        0.3361198532        5.4282788792
 H        -7.0841984093       -1.1188037670        4.6064317775
 H        -8.6664209388       -0.5161781643        5.1453987058
 H        -7.8587451099       -1.7441048113        1.0423329120
 H        -8.7085949055       -1.8280591091        2.5819302616
 H        -6.9113309168       -1.7353486189        2.3549308400
 H        -6.7643841208        1.7371741406        1.3009077065
 H        -7.1810257457        0.3838480155        0.2059741108
 H        -5.8718758978        0.4147949933        1.4640500166
 H       -14.5968683312        0.3437782889        3.8821997354
 H       -15.1803528177       -0.2814813575        2.3337255485
 H       -15.8912492574        1.2239340016        3.1022253484
 H       -14.9852458096        2.7823890916        0.8135438058
 H       -15.0184786755        1.0731860100        0.4859290764
 H       -13.4620446179        2.1316740047        0.2904666937
 H       -10.5974036185        7.5237148472        6.0248889402
 H       -10.8632056141        5.8185503888        6.6543351745
 H       -12.2367597092        6.7224639935        5.9988211307
 H       -10.4885500699        6.7079721880        2.5033632818
 H       -11.1227558004        7.9194779650        3.6868046809
 H       -12.2304493069        6.7611244768        2.9763228834
 H        -4.6497679489        6.4686089578        2.2025404021
 H        -4.8151546418        5.3832125016        0.9190480137
 H        -5.7440490710        5.0742564316        2.5562154618
 H        -5.0820996268        7.2770577809       -0.4735319998
 H        -5.0466368839        8.2625053698        1.0671024673
 H        -6.3809825020        8.5730039553        0.0301902142
 H       -10.5476437807        2.3517373016       -3.7400001619
 H       -10.5523317636        3.9529422619       -3.3617819676
 H        -9.9477112949        2.7038817220       -2.1312306935
 H        -7.9603025127        1.3554624013       -4.7406705363
 H        -8.0167841878        1.1496395334       -3.0725961689
 H        -6.5972201732        1.9850947578       -3.8456437581
 H       -12.9196159192        1.9513748975       -6.6618467896
 H       -12.3631359914        1.4724788349       -8.2895523570
 H       -13.6426392599        2.7056465574       -7.9823488948
 H       -10.6378559475        4.6217274327       -8.9074426983
 H       -12.2602018262        4.1563599321       -9.7382507756
 H       -10.7784064077        2.9631493568       -9.6300936769
 Na       -8.8122724009        3.7878932179        2.5660255238
