117

 C       -12.0776987952       13.2389890477        1.9707059673
 C       -11.6120647915       12.5322154280        3.2941992449
 O       -10.5105474955       12.3699891430        3.7300605721
 C       -12.8320951293       11.9898307866        4.2668385182
 C       -13.3011237828       10.7522223388        3.4385547206
 O       -14.1549492805       10.7824286179        2.5857623739
 C       -12.6916439103        9.2982713533        3.6286096977
 C       -13.4835000964        8.0395770229        3.8426373055
 C       -12.8247530502        6.6852983180        3.4152883747
 O       -13.4113937816        5.9986554839        2.5585849995
 C       -11.6301487843        6.0862910555        4.3297724376
 C       -11.4764562588        4.5292245406        3.7759741995
 O       -11.9274704957        3.5529754549        4.4198872857
 C       -11.1306942141        4.2373725267        2.2622834730
 C       -12.0913216561        3.1892938452        1.6875288018
 C       -11.5240762751        2.7982301945        0.3285969758
 O       -10.3904807755        2.9546204736       -0.0018575351
 C       -12.7119973484        2.4543705984       -0.7592587638
 C       -12.0904878148        1.3384855817       -1.7651025996
 O       -11.4258695628        1.7039733427       -2.7161307457
 C       -12.5657212227       -0.1920735863       -1.9610043108
 C       -11.8350010415       -1.2061438495       -1.0181288476
 C       -10.4357767777       -0.6485623786       -0.5442340262
 O       -10.1159825641        0.5305695219       -0.6766907399
 C        -9.4632735252       -1.4076553239        0.6159370999
 C        -8.1387229477       -1.7649009948       -0.0720404575
 O        -7.8602592945       -2.9622882403       -0.3053407759
 C        -7.0326919267       -0.6411737402       -0.2864301288
 C        -6.2816002162       -0.8196626348       -1.5705837302
 C        -7.1550080496       -0.9306234845       -2.8498094787
 O        -8.3921398123       -0.8516337629       -2.7474102297
 C        -6.4686316671       -1.1734247984       -4.1711090745
 C        -5.9690622224        0.2882071237       -4.6341350657
 O        -4.9142219459        0.6253090015       -4.1406620699
 C        -6.7528354771        1.2011030705       -5.5287080955
 C        -6.4184569272        2.7304865392       -5.1872699773
 C        -7.1265771153        3.0200239102       -3.8116758444
 O        -8.1996367695        2.4659971014       -3.6903078280
 C        -6.4766458703        3.9513070597       -2.7439207615
 C        -7.3003017349        5.1444354117       -2.3650908914
 O        -8.3003131040        5.0172343658       -1.6789882947
 C        -6.7920221932        6.5498096572       -2.7598388978
 C        -6.2619299005        2.9739107413       -1.4381397340
 C        -5.0442379040        4.3570822397       -3.3667363356
 C        -5.1343427688       -1.9538307073       -4.0176298164
 C        -7.2773103583       -1.8589244977       -5.2331903290
 C        -9.2273888088       -0.3068422835        1.6806058801
 C       -10.2107341111       -2.6163760063        1.0918510434
 C       -13.9608394112        1.8573567826       -0.0480691713
 C       -13.1525422484        3.7749571039       -1.4529445505
 C       -10.3013901433        6.8591601921        3.9696895755
 C       -12.1603517161        6.0135233174        5.8479901241
 C       -12.4089665879       11.4703448714        5.6593641624
 C       -14.0669632841       12.9711209025        4.5161473632
 H       -12.3184596511       12.4901910080        1.2551954453
 H       -11.0866413823       13.6475996069        1.6079909294
 H       -12.8478415323       13.9871538187        2.0710821975
 H       -11.8985255092        9.3716455307        4.3993906334
 H       -12.0633817989        9.2020473151        2.7786450011
 H       -14.4041670017        7.9687857335        3.2577786279
 H       -13.6827324057        7.9365657660        4.9319365735
 H       -10.0264692149        3.9988025499        2.1862036934
 H       -11.3226545023        5.0732964227        1.5965760237
 H       -13.0505911387        3.6948056660        1.6244453610
 H       -12.3087652121        2.3772851579        2.3868181748
 H       -12.2020930227       -0.3486683929       -3.0610578165
 H       -13.5646631257       -0.4340983046       -1.8574328946
 H       -11.8820140914       -2.1220884825       -1.6227850871
 H       -12.5861273102       -1.4173612370       -0.1997308661
 H        -6.3682686915       -0.8111302345        0.6456726540
 H        -7.3984229282        0.4377334596       -0.3262140770
 H        -5.6423159235       -1.7045054934       -1.5630181453
 H        -5.6338914285        0.0461854988       -1.6995651884
 H        -7.9150988897        1.1488398297       -5.4245914526
 H        -6.5824998235        0.9791019947       -6.5701932643
 H        -6.9518854136        3.3720559127       -5.8222718455
 H        -5.3353699618        2.8835526246       -5.1816235243
 H        -5.7079546865        6.8107348896       -2.7308899489
 H        -7.1897428353        7.3889414562       -2.1837611794
 H        -7.3186424443        6.8468193346       -3.7324270072
 H        -7.2296141508        2.5098978089       -1.1307394012
 H        -6.0196534311        3.6859878427       -0.6151550799
 H        -5.6644120057        2.1915741289       -1.7795491094
 H        -4.5954028757        4.8710355044       -2.5135821836
 H        -5.3536121778        4.9479016294       -4.2332619746
 H        -4.3283546197        3.4813445495       -3.7190846759
 H        -4.4756991708       -1.5308324908       -3.2269159036
 H        -4.5623354131       -1.7817569768       -4.9768037681
 H        -5.2998517321       -2.9737196067       -3.7608037370
 H        -8.3061255846       -1.8536482893       -5.0914300146
 H        -7.0566662544       -2.9796045271       -5.3426008029
 H        -7.0798290938       -1.4322637547       -6.1847657459
 H       -10.2331450304        0.1292428673        1.9893240944
 H        -8.6552628379        0.5565862078        1.4659436162
 H        -8.7699719194       -0.8792986233        2.4914145915
 H        -9.5070114561       -3.4649110242        1.0270222297
 H       -11.1298957304       -2.9780300227        0.5271617284
 H       -10.5119002890       -2.5100383826        2.0832567001
 H       -13.7802571721        0.7722696802        0.0402503192
 H       -14.8380565783        2.0442966425       -0.6086238120
 H       -13.9637580179        2.2748587786        0.9627133848
 H       -14.2682214146        4.1336282856       -1.4278153773
 H       -12.7665219095        3.8816980478       -2.4611424205
 H       -12.5487374936        4.5892047783       -1.0099020404
 H        -9.3906664845        6.9648385200        4.6758013014
 H       -10.6295050825        7.8102058318        3.8419455182
 H        -9.9444429597        6.4625577946        2.9700204424
 H       -13.0371181453        5.4262115219        5.8289488890
 H       -12.5202771216        6.9214963630        6.2984555878
 H       -11.4328181650        5.4386753412        6.4183204743
 H       -12.5990311154       12.2730941269        6.2920598600
 H       -11.3422801425       11.2049297525        5.7357542016
 H       -13.1539293206       10.6923048614        5.8523739633
 H       -13.6244378532       14.0576980116        4.4014969551
 H       -14.5741786910       12.9611569438        5.4958245284
 H       -14.7132853276       12.8333705188        3.6787972346
 Na       -9.7811891243        2.9125725732       -2.0393777426
