117

 C       -11.6632622277       12.8552336904        1.4881860704
 C       -11.4818029882       12.6482435619        3.0285153853
 O       -10.3651583127       12.8390472822        3.4300334076
 C       -12.5672093600       12.1739519901        4.0829747520
 C       -13.1393223298       10.8366660314        3.5795740419
 O       -14.1361003663       10.6537783925        2.9457053755
 C       -12.2288104178        9.4638431929        3.7668204322
 C       -12.7396702542        8.2842901200        3.0040941624
 C       -12.6000939425        6.8012182076        3.1519692549
 O       -13.2901864182        6.0654462591        2.4058468842
 C       -11.7157027243        6.0506565818        4.1490042468
 C       -11.9835039039        4.5439076719        3.8345727881
 O       -12.4857837092        3.8971810271        4.6973825561
 C       -11.3568886401        3.9672451492        2.6379871877
 C       -12.3206845763        3.1248060554        1.6435323709
 C       -11.7896497942        3.0528706526        0.2483884342
 O       -10.6335806307        3.3511606314        0.0538765988
 C       -12.8076840760        2.4890131953       -0.9266198838
 C       -12.0721357050        1.3514821638       -1.8687480905
 O       -11.4810594516        1.6896442423       -2.8744437878
 C       -12.1886572401       -0.2071424849       -1.5754323236
 C       -11.9837290217       -0.5166685244       -0.1401276395
 C       -10.5262938251       -0.2810003701        0.2278697564
 O        -9.9608009975        0.6522211046       -0.3564881547
 C        -9.6644813751       -1.3207746140        1.0360275047
 C        -8.5292696632       -1.7339806410        0.0550418014
 O        -8.6518023918       -2.7430895120       -0.5744739299
 C        -7.3419698116       -0.8236350601       -0.2315351133
 C        -6.4310020005       -1.4915343343       -1.2325925364
 C        -7.1006132603       -1.3118457730       -2.6954047425
 O        -8.2214294315       -0.8869969482       -2.7726796808
 C        -6.2905704121       -1.3883190487       -4.1014521806
 C        -5.7028315622        0.0741559651       -4.2471910535
 O        -4.8495370076        0.4570542702       -3.4293947931
 C        -6.1941995628        0.9077502080       -5.4143499284
 C        -6.2261864703        2.5243502797       -5.2183436699
 C        -7.1162378114        2.8229013305       -3.9587476269
 O        -8.1586918144        2.2197695915       -3.7194942041
 C        -6.5047297360        3.8123807805       -2.8282122915
 C        -7.4661358003        5.0219071341       -2.8943643603
 O        -8.6091615605        4.8726436592       -2.5334135312
 C        -7.0224339720        6.3088410488       -3.4286883459
 C        -6.5267465668        3.2152152506       -1.5220416566
 C        -5.0768969575        4.2392561890       -3.2035211514
 C        -5.0622749469       -2.3036426275       -4.1395092324
 C        -7.2579285354       -1.9316532798       -5.1365792156
 C        -9.0881513436       -0.5398088587        2.2651577056
 C       -10.3737660377       -2.5870648274        1.7066233272
 C       -14.1499977140        2.0620459872       -0.2409273621
 C       -13.1473795292        3.7502220315       -1.8987573019
 C       -10.3653902434        6.6125063723        3.8832878898
 C       -12.2026051826        6.4469199488        5.5738880200
 C       -11.9140534775       12.1862350278        5.5278903969
 C       -13.8563463876       13.1116985214        4.1152077938
 H       -11.9340391492       11.9380865640        0.9836045966
 H       -10.6677658876       13.0328060412        1.2574446765
 H       -12.3228833822       13.6278484097        1.2530994995
 H       -12.0865487027        9.3037772694        4.8857970345
 H       -11.2439797164        9.6998556078        3.3889821874
 H       -12.5402991378        8.4017606128        1.9477836997
 H       -13.8559833922        8.3169011009        2.9803742419
 H       -10.4192136255        3.3616840357        2.8200499046
 H       -10.9044529176        4.7211719179        2.0183258253
 H       -13.3770804182        3.3504463292        1.6331573044
 H       -12.3137455090        2.0575438341        1.9645929852
 H       -11.3980230084       -0.8624185814       -2.0110398214
 H       -13.1746046678       -0.3602634111       -1.9814337033
 H       -12.3207683119       -1.5650950826       -0.0480130666
 H       -12.8046529063       -0.0200932955        0.4526200298
 H        -6.5842618281       -0.6275011974        0.5500487773
 H        -7.8095583720        0.0607322515       -0.6901988401
 H        -6.1519125581       -2.5604681379       -1.0410803675
 H        -5.5375909144       -0.9111589257       -1.4091400163
 H        -7.3072957808        0.6941630954       -5.6920706891
 H        -5.7590525384        0.6537948946       -6.3951855836
 H        -6.7989640340        2.9785845553       -6.0521896741
 H        -5.2169814801        3.0291415968       -5.2678582361
 H        -6.3951587352        6.8048376833       -2.7010480258
 H        -7.7753483094        6.9917835332       -3.7392303837
 H        -6.5954029303        6.2423566018       -4.5044188408
 H        -7.4902311487        3.0762846517       -1.1728850802
 H        -5.9521710704        3.7335615988       -0.6384585877
 H        -6.0294131119        2.2004630771       -1.7479568925
 H        -4.7518398163        4.7241834981       -2.2670645626
 H        -5.0440651370        5.0328319115       -3.8433461516
 H        -4.4061925738        3.3202613578       -3.4198107729
 H        -4.2122492472       -1.7201506883       -3.7326348548
 H        -5.0402147939       -2.7929887240       -5.1315420728
 H        -5.1531440314       -3.2008496396       -3.4197719425
 H        -8.0831583671       -1.2778704951       -5.2969595862
 H        -7.7792956173       -2.9328607942       -4.8464269618
 H        -6.7473027102       -2.1834971877       -6.0897949473
 H        -9.8474111767       -0.4452623385        3.0873255067
 H        -8.7074829850        0.3510466386        1.9009510600
 H        -8.2177663539       -0.9961348335        2.6716923889
 H       -10.4623853297       -2.5742863515        2.8102704271
 H        -9.7791052476       -3.4766072421        1.3521168089
 H       -11.3966261429       -2.6943530794        1.4112978811
 H       -14.0591734215        1.3247575158        0.5060281956
 H       -14.6579285453        1.7267893157       -1.0554934414
 H       -14.6793670724        3.0043040275       -0.0785660107
 H       -12.9417386872        3.4538751222       -2.9541682421
 H       -12.6300981217        4.7336210156       -1.6420654459
 H       -14.1383695884        4.0670081445       -1.8002364282
 H        -9.5442701244        5.9065770070        4.0982918483
 H       -10.2565441259        7.4752363534        4.5434292556
 H       -10.2707003895        6.7886941694        2.8645188788
 H       -12.0538162078        5.6507483504        6.1261320249
 H       -13.2560733157        6.6690092327        5.8330442603
 H       -11.5347693762        7.2632818750        5.9347269937
 H       -11.3301242723       13.0625171027        5.7205918059
 H       -11.3137175139       11.2145492957        5.6703237679
 H       -12.7935567591       12.1882413493        6.0945666205
 H       -13.7608540212       14.1929068500        4.3761896900
 H       -14.6697663116       12.5128211969        4.6776713469
 H       -14.1786153753       13.0695135199        3.0807903454
 Na       -9.7101866370        2.6864011919       -1.9177909678
