117

 C       -11.5145101898       12.0203652866        1.0167664491
 C       -11.1045105231       12.3846107675        2.4312031491
 O        -9.9424340870       12.6287396564        2.8212085916
 C       -12.0385716281       12.1217439691        3.6641843345
 C       -13.0657777528       11.0213100214        3.2562964552
 O       -13.8507131845       11.3295222305        2.3924250778
 C       -12.9110831261        9.5264042188        3.8103295397
 C       -11.9858622205        8.7930168818        2.8580327161
 C       -12.2751089831        7.2632768768        2.9138471399
 O       -12.9886409140        6.9172766620        2.0099107241
 C       -11.7432659358        6.3179426596        4.0003873312
 C       -12.1553335404        4.8498821748        3.6892891520
 O       -12.7984513195        4.1740417232        4.3543482910
 C       -11.5427323402        4.3028646065        2.2789045890
 C       -12.6794377702        4.0705781764        1.2657989457
 C       -12.1581136692        3.4533868816        0.0369910265
 O       -10.9659268969        3.5148656646       -0.1469119968
 C       -13.2155243188        2.7697816129       -1.1230388909
 C       -12.2810389850        1.7258448319       -1.7481637023
 O       -11.5780220311        1.9121955647       -2.7475794741
 C       -12.2066812698        0.2937674027       -0.9287319056
 C       -11.7944390761        0.2885545887        0.6413504897
 C       -10.3094654710        0.1482705370        0.6620105146
 O        -9.5317693321        0.7229299758       -0.1074857168
 C        -9.6559883733       -0.9544513433        1.5544590478
 C        -8.9933494267       -1.9612273043        0.4627356495
 O        -9.4164581792       -3.0047897624        0.1476834178
 C        -7.7249234596       -1.4565292754       -0.1354584638
 C        -7.1086659065       -2.4951276342       -1.1358807808
 C        -7.2449157406       -1.9346177774       -2.5920370066
 O        -8.2781782418       -1.3808348532       -2.8008046795
 C        -6.2114334233       -1.9398075016       -3.8142468416
 C        -5.6247202444       -0.4190980847       -3.8506164659
 O        -4.9823528972        0.0049390659       -2.8841649919
 C        -5.8767984435        0.4591115078       -5.0905564640
 C        -5.7303867839        1.9548729052       -4.6099224409
 C        -6.8072092102        2.4261659169       -3.5007037633
 O        -7.5818280090        1.6044394825       -3.0227835225
 C        -6.6039102627        3.8226345160       -3.0254113498
 C        -7.9571503115        4.5903608971       -3.4710278539
 O        -9.0146190418        4.2064750778       -2.9547139966
 C        -7.6834536448        5.7405201465       -4.3581316087
 C        -6.4025404980        3.8958121171       -1.4553700091
 C        -5.2221366311        4.5517525604       -3.5582870710
 C        -4.9631535180       -2.8917560929       -3.7527839658
 C        -7.0794929758       -2.3196993764       -5.0317174653
 C        -8.6848723596       -0.1455966015        2.4432540617
 C       -10.5180771141       -1.8867573740        2.4150509497
 C       -14.5986637077        2.2147859237       -0.4648340397
 C       -13.6040468093        3.9208099890       -2.0820554248
 C       -10.2579354994        6.4959127582        4.3049264953
 C       -12.5247155969        6.9127468181        5.2433550162
 C       -11.1903721664       11.9360461971        4.9180461707
 C       -12.9918904229       13.4357241048        3.8669634392
 H       -12.6026573107       12.4444366154        0.8362859765
 H       -11.4726852003       10.9331869216        0.8434702259
 H       -10.6402215794       12.4810891847        0.4273551191
 H       -13.9344448390        9.1529303573        3.7222576725
 H       -12.5051228083        9.5227279087        4.7880790584
 H       -10.9463558413        8.8222498620        3.2252572845
 H       -11.8747514763        9.0693401293        1.8226010672
 H       -11.0126928998        3.3716717134        2.3692095292
 H       -10.8573769256        5.0547883959        1.9150368734
 H       -13.2278960289        5.0043326699        1.1710695003
 H       -13.4522324303        3.3936175375        1.6592445071
 H       -11.4159673413       -0.3239366111       -1.4887864273
 H       -13.0978482767       -0.2396136541       -1.0784435998
 H       -12.4272454766       -0.3886623542        1.1421255692
 H       -11.8740655901        1.2615689999        1.1722106858
 H        -6.9068723525       -1.3408624179        0.5707156170
 H        -7.9097382179       -0.4824207900       -0.5978103398
 H        -7.6597932725       -3.4237942076       -1.0957018456
 H        -6.0180568268       -2.6472117089       -1.1189554511
 H        -6.9695035212        0.4010595876       -5.2247937200
 H        -5.3971457951        0.3549820048       -6.0744830203
 H        -5.7297613205        2.5435467825       -5.4809737539
 H        -4.7240133777        2.2256081024       -4.2509009197
 H        -7.0630777609        6.4771750497       -3.9085571959
 H        -8.4064917782        6.3057714528       -4.9062537622
 H        -6.9756874862        5.3904802640       -5.2131036391
 H        -7.0503168037        3.2857362230       -0.9287479050
 H        -6.5896691608        4.9479458492       -1.2819725020
 H        -5.4267969919        3.8249022056       -1.0038435293
 H        -5.3799121112        5.6359421008       -3.2865299236
 H        -5.0408332030        4.4876640599       -4.6321891172
 H        -4.3092528404        4.3256187227       -2.9774460723
 H        -4.4841053573       -2.6477333346       -2.8773419298
 H        -4.2845528277       -2.5654134205       -4.4441164191
 H        -5.3872339297       -3.8823641794       -3.8944554668
 H        -7.9195522074       -1.7267885214       -5.1562006270
 H        -7.4021975302       -3.3749660601       -4.9270275230
 H        -6.5480072108       -2.2167639806       -5.9400217549
 H        -9.2918342617        0.6132545907        3.0994434750
 H        -7.9909256969        0.3644023364        1.7497280917
 H        -8.1354682871       -0.8410271979        3.1424794948
 H       -11.5959720597       -1.8868056622        2.1875756991
 H       -10.3795623604       -1.7975120768        3.5101753660
 H       -10.0471163852       -2.7810730690        2.1303104795
 H       -14.5171363887        1.5381304173        0.4195295199
 H       -15.0003535816        1.6964060335       -1.2805315639
 H       -15.1077723769        3.1520419428       -0.0792788832
 H       -13.0861627985        4.8817514328       -2.0282987479
 H       -14.7114866392        4.1785826724       -2.0849911415
 H       -13.4434899750        3.5420288137       -3.0139399711
 H       -10.0938833804        5.6695453021        5.0283702073
 H       -10.0808544359        7.5349689275        4.7834302770
 H        -9.6721951371        6.4814931240        3.4334134203
 H       -12.6393374154        6.0552898527        5.9905883748
 H       -13.4077988306        7.5922566889        5.2168942724
 H       -11.9100951709        7.4860829532        5.7964705298
 H       -10.4406027673       12.7022497830        4.9369373855
 H       -10.5866116275       10.9312119095        4.8150340121
 H       -11.7447597989       11.9289069450        5.8159931429
 H       -12.5669053277       14.3954183538        3.9198490392
 H       -13.6874829831       13.4091422027        4.7378477169
 H       -13.5410753686       13.2847613060        2.9774694323
 Na       -9.4889739979        2.2586880782       -1.7567831207
