117

 C       -11.4656198805       12.1917039861        0.8278187118
 C       -10.8363269997       12.2429308501        2.3105077263
 O        -9.7007500590       12.5524678807        2.4736371509
 C       -11.9134152398       12.2263372339        3.4358257371
 C       -13.0903388628       11.1592233409        3.0957501909
 O       -13.8765978707       11.3750586213        2.1908457984
 C       -13.0894425327        9.7032423451        3.6888266686
 C       -11.8151401540        8.9881145573        3.2355787971
 C       -12.3025520483        7.5159923015        3.0874296643
 O       -12.7485899554        7.1723704225        2.0177409516
 C       -11.8418492145        6.5125885765        4.1682443716
 C       -12.2229476989        5.1268983394        3.5599263924
 O       -12.8537984748        4.3038910579        4.3369398936
 C       -11.7542349755        4.7077138020        2.1773311244
 C       -12.8422502341        4.1167413532        1.2057184895
 C       -12.1812836594        3.5818119980       -0.0801442216
 O       -11.0220802857        3.7837745901       -0.4306470139
 C       -13.1667307255        2.7806547967       -1.0777844909
 C       -12.3272588066        1.5476576973       -1.8223621006
 O       -11.7267817233        1.7699618554       -2.8395204932
 C       -12.4015234662        0.1633197810       -1.0017945863
 C       -11.7626263921        0.3191796558        0.3779074265
 C       -10.2152987258        0.0416357621        0.4736510110
 O        -9.4560712064        0.7627946181       -0.1053207861
 C        -9.5752263588       -0.9056953861        1.5377058931
 C        -8.8884374913       -2.0493988880        0.6719123358
 O        -9.4865581460       -3.0923833569        0.4304551919
 C        -7.5579991561       -1.7373698728        0.0175130316
 C        -7.0647833315       -2.5400112908       -1.1777446164
 C        -7.4463139215       -2.0783367281       -2.6577808445
 O        -8.4750199251       -1.5146717994       -2.9440378885
 C        -6.3121645792       -2.1797416866       -3.6963224308
 C        -5.6342203375       -0.7534396235       -3.5123775823
 O        -4.8246385339       -0.5349707237       -2.6819177365
 C        -6.0850316148        0.3071134804       -4.6027142647
 C        -5.7892193364        1.7735470368       -4.4555396135
 C        -6.6783664049        2.2408569098       -3.3693025422
 O        -7.5212169196        1.5736695354       -2.8070184353
 C        -6.5561927334        3.9756470678       -2.9129815112
 C        -7.9486640400        4.5651775322       -3.4546313298
 O        -8.9433791082        4.1713455854       -2.8792202725
 C        -8.2603869692        5.6116728950       -4.6275909545
 C        -6.4757040038        4.2391035455       -1.3478581394
 C        -5.3975165480        4.5917559421       -3.8328030852
 C        -5.2342681793       -3.2725180664       -3.3003415659
 C        -6.8164062686       -2.2812104508       -5.1436994819
 C        -8.4765051186       -0.1147497600        2.4052972954
 C       -10.6230657071       -1.3970883202        2.5126367809
 C       -14.3874340344        2.1749752745       -0.4375223504
 C       -13.3745524534        3.9428889305       -2.1633761214
 C       -10.2703583250        6.5473084196        4.3830244859
 C       -12.6096452424        6.5892051353        5.4995743450
 C       -11.2816751608       11.7355743553        4.8706225858
 C       -12.4483561127       13.6437238420        3.6067752239
 H       -11.9397064433       13.0954083525        0.7451378627
 H       -12.2271377606       11.4227280776        0.8824235805
 H       -10.8011812356       11.9088647946        0.1020077800
 H       -14.0300770435        9.2777738788        3.3458151307
 H       -13.1959998307        9.9533914450        4.7966423555
 H       -10.9394401497        9.0226463739        3.9092391262
 H       -11.4740423560        9.2573111802        2.2190200238
 H       -11.1312158116        3.7805252288        2.3372460607
 H       -11.1094455026        5.5668019067        1.8345373905
 H       -13.6506195242        4.8283396878        0.9247426426
 H       -13.4054984790        3.3877159783        1.7881315614
 H       -11.9384048824       -0.6443363237       -1.5132371241
 H       -13.4960690761       -0.1034701462       -0.9771605467
 H       -12.4318980683       -0.3183048169        1.0968826256
 H       -11.6532037791        1.3572308756        0.7712505803
 H        -6.6904594789       -1.9737511969        0.6042501630
 H        -7.4950087643       -0.6800887508       -0.1430813271
 H        -7.3959058073       -3.6022401355       -1.1454724575
 H        -5.9954683648       -2.4190875392       -1.2907169935
 H        -7.1888060143        0.2718498746       -4.8562852018
 H        -5.4555441979        0.0181476595       -5.4775116479
 H        -5.9175494782        2.4137808879       -5.4192419682
 H        -4.7123591916        2.0049673024       -4.3157721765
 H        -7.8546472061        6.6395883593       -4.4979330627
 H        -9.3369484960        5.7755385639       -4.7042754858
 H        -7.9323529434        5.4728424904       -5.5996062435
 H        -7.5427479029        4.2210681557       -1.0123462557
 H        -5.9830612390        5.2606818184       -1.0840367434
 H        -6.0950618201        3.4603075966       -0.6811965952
 H        -5.3104407858        5.5532220795       -3.5193061703
 H        -5.7766921928        4.6731049994       -4.8119686993
 H        -4.2794437319        4.2581783061       -3.8192133322
 H        -4.6481303137       -2.9079367947       -2.3956223556
 H        -4.4673087769       -3.0795865335       -4.1539854586
 H        -5.8319976675       -4.1595564350       -3.3559209250
 H        -7.7899092412       -1.7471181622       -5.3488757944
 H        -7.0180550425       -3.3298537551       -5.4777486884
 H        -6.0547839453       -1.8791278914       -5.8466941600
 H        -8.7454426901        0.8866345442        2.7179839791
 H        -7.5671085449        0.0130493475        1.7722958790
 H        -8.2517594534       -0.8591355767        3.1846970587
 H       -11.4041967691       -1.7578048183        1.8822092379
 H       -11.1177614832       -0.6326840120        3.0914215178
 H       -10.1370434039       -2.1757474562        3.1153105753
 H       -14.0743891431        1.5728312098        0.4156046896
 H       -14.7440465206        1.4546224878       -1.2050607163
 H       -15.0175651528        2.8911423525       -0.0143051754
 H       -12.4653084430        4.5746694838       -2.2339179445
 H       -14.0696332109        4.5967958005       -1.8142075750
 H       -13.6914327989        3.6867715980       -3.2115194383
 H       -10.0750012753        5.8192967005        5.1374101312
 H       -10.0499497480        7.4524155670        4.6955368942
 H        -9.7411769039        6.3661477611        3.3944674658
 H       -12.2243062456        6.1617656124        6.2980538756
 H       -13.6669053980        6.2732652462        5.3461346420
 H       -12.8845592218        7.6742028798        5.8438551171
 H       -10.6038265454       12.4172306640        5.4206513475
 H       -10.7848919012       10.8343919299        4.8165462556
 H       -12.2557826949       11.5560151378        5.4711967708
 H       -11.7386170653       14.2053565954        4.3153446393
 H       -13.1651057069       13.5020137507        4.3266946342
 H       -12.7155776444       14.2767723523        2.7534814401
 Na       -9.4779945782        2.2869497194       -1.8091104689
