117

 C       -11.3064806798       12.3197475173        0.6875000451
 C       -10.7781388480       12.3652969534        2.1919091566
 O        -9.5549048374       12.3719881102        2.3827095344
 C       -11.9557610889       12.2217493315        3.3748517930
 C       -13.0579057684       11.3681812824        2.9302715603
 O       -13.9480050367       11.5977746011        2.1710086781
 C       -13.1705969892        9.8679975037        3.6894979763
 C       -11.8489201491        9.0313848992        3.5014331944
 C       -12.1681706847        7.6389970712        3.0557825985
 O       -12.7487509503        7.4091252487        2.0273932087
 C       -11.9561338707        6.4569906376        4.1068057416
 C       -12.2166179956        4.9559566753        3.5343079796
 O       -12.9238554443        4.2431326052        4.1557615387
 C       -11.6793884922        4.7276230313        2.0742111510
 C       -12.6742978727        4.0603694417        1.1728460949
 C       -12.1343823622        3.5931994551       -0.1112447384
 O       -10.9669941397        3.8567719366       -0.3182798333
 C       -13.1120117346        2.7418756072       -1.0862040804
 C       -12.3590894818        1.6186837015       -1.7984816280
 O       -11.7313113140        1.7545298549       -2.8307623928
 C       -12.3865225764        0.2513602816       -1.1047295183
 C       -11.6977565163        0.1937163107        0.3141207800
 C       -10.0580138655        0.2218803670        0.5150440289
 O        -9.3774970572        0.8630483136       -0.2887076141
 C        -9.5510689531       -0.8357888787        1.5576625683
 C        -8.9977977595       -2.1088310641        0.6719609540
 O        -9.5040570955       -3.1603477031        0.6293057441
 C        -7.5073844097       -1.7761244624        0.1873293881
 C        -7.1386909235       -2.7093050009       -1.1200343640
 C        -7.5142721848       -2.1327504642       -2.5739921017
 O        -8.5552638190       -1.6740300231       -2.9726325142
 C        -6.2898472578       -2.3135501406       -3.7042086224
 C        -5.5625342434       -0.8644921213       -3.5670449751
 O        -4.8378550576       -0.7663460196       -2.6083593771
 C        -6.0565147621        0.1587584592       -4.5801793599
 C        -5.7124415550        1.7270085505       -4.0845161656
 C        -6.7974658057        2.4646635476       -3.2099281530
 O        -7.4753399125        1.6404140390       -2.5699702204
 C        -6.7308925857        4.1237297683       -3.1224948481
 C        -8.0567171715        4.6722817275       -3.5136787982
 O        -8.9945514078        4.1626087956       -2.8276102946
 C        -8.3637501581        5.4739435638       -4.6648530621
 C        -6.4559882320        4.2175732464       -1.6372865981
 C        -5.4581072779        4.7668775955       -3.7963618344
 C        -5.3582815128       -3.4602971930       -3.1710848178
 C        -6.7782644369       -2.5375470226       -5.1091135983
 C        -8.3887277546       -0.1725741751        2.4066720096
 C       -10.6198457939       -1.2982993520        2.5640462362
 C       -14.4584561965        2.3073305600       -0.4392692620
 C       -13.3672234635        3.6695383581       -2.3357322295
 C       -10.3940205893        6.4775403387        4.4946975170
 C       -12.5133381753        6.6469968822        5.5934583572
 C       -11.3404163388       11.7390497662        4.6779000802
 C       -12.2292057161       13.7148672018        3.4998759456
 H       -11.6885014662       13.2797213952        0.3666453904
 H       -12.0417610150       11.6430301693        0.7823064303
 H       -10.6171473418       11.8369881028        0.0860673646
 H       -14.1380776402        9.4973603775        3.3975335499
 H       -13.3252460824       10.2344298643        4.7195559205
 H       -11.2218741493        8.9929448686        4.4681513196
 H       -11.2349443759        9.4082658340        2.7006210651
 H       -10.8324297898        4.0734344179        2.1676099289
 H       -11.3293915320        5.7392779099        1.6703543921
 H       -13.3439622171        4.9135316130        0.8786537994
 H       -13.3505418804        3.4713139701        1.7690595037
 H       -11.8676200149       -0.3643400019       -1.9547502883
 H       -13.4039788839       -0.0711180713       -1.0854203426
 H       -12.1029498872       -0.7703841850        0.7338673872
 H       -12.0407340815        1.0931580025        0.9384853983
 H        -6.6626366040       -2.1330839072        0.8403541500
 H        -7.2291195603       -0.6892012770        0.0246442528
 H        -7.5392559010       -3.6744445357       -1.1471909844
 H        -6.0880774024       -2.6910003545       -1.3165003878
 H        -7.1330385350        0.1133216896       -4.5319173757
 H        -5.7053736201       -0.0625109459       -5.5002855909
 H        -5.6794859042        2.4596923586       -4.9199487469
 H        -4.6695049419        1.8101228211       -3.8061707904
 H        -7.8879844738        6.4258707775       -4.6981625929
 H        -9.3718601066        5.7039115998       -4.7366895741
 H        -8.0091478744        5.1275329743       -5.6848883093
 H        -7.3157737942        4.1855915458       -1.0035785365
 H        -5.7192368681        5.1499592257       -1.4464700808
 H        -5.9588030145        3.2735631656       -1.2337848557
 H        -5.2373342767        5.7426527476       -3.3278969397
 H        -5.4279730114        4.8513504614       -4.8819648205
 H        -4.5583455595        4.1604007019       -3.3932743625
 H        -4.6539416663       -2.8946372352       -2.6048001873
 H        -4.8019213975       -3.9150155946       -4.0329496924
 H        -6.1019166125       -4.1121080403       -2.6745960726
 H        -7.5288284371       -1.8407239085       -5.4473429699
 H        -7.3408104069       -3.5803316541       -5.2503499189
 H        -5.9465741563       -2.5558376620       -5.8345185574
 H        -8.8280139553        0.6708921623        2.9078557322
 H        -7.6526665332        0.3301224327        1.8697340586
 H        -7.9950043230       -0.9740894881        2.9910615901
 H       -11.0395484244       -2.2112104545        2.1502519518
 H       -11.5303576087       -0.6435058621        2.4937290917
 H       -10.2385236245       -1.3718092696        3.5354892451
 H       -14.3278583621        1.6815718381        0.4458634363
 H       -15.1330215270        1.8693819608       -1.0950336820
 H       -14.7255197476        3.3101526821       -0.0572230446
 H       -12.4617077086        3.8642304408       -3.0053916880
 H       -13.6310620431        4.7328109127       -1.9768109185
 H       -14.1696556750        3.3373316265       -2.9141219538
 H       -10.1869035971        5.7480389426        5.2848907629
 H       -10.4203255587        7.4724932407        4.9812891129
 H        -9.7290072465        6.4425109596        3.6648098267
 H       -11.9159891452        6.4012254410        6.5230231195
 H       -13.5790031573        6.1924524464        5.7302084890
 H       -12.8138013772        7.6274593306        5.7711260536
 H       -10.6861050702       12.4623607025        5.0303015902
 H       -10.7084038972       10.8038251489        4.8131380735
 H       -12.1791531890       11.7344167297        5.3593510200
 H       -11.3527433094       14.2228280110        3.9966293650
 H       -12.9770472548       13.8907107880        4.3345890131
 H       -12.4273645215       14.2021826775        2.5406740486
 Na       -9.6737449874        2.3405281881       -1.7721528792
