117

 C       -11.1108487802       12.4453334772        0.5854338377
 C       -10.7446628177       12.1499245790        2.0740502531
 O        -9.5632562448       12.1897880040        2.3807998487
 C       -11.7720031302       12.3260287346        3.2560938361
 C       -13.0891018844       11.4823715755        2.8769460127
 O       -13.9766096192       11.8622532424        2.1585623698
 C       -13.1967552580       10.0217081748        3.6020356954
 C       -11.9873630905        9.1357526118        3.7514869644
 C       -12.2767104793        7.6892838849        3.2115881046
 O       -12.7119271744        7.5201324892        2.0773942525
 C       -11.9279767861        6.4655778901        4.2136240206
 C       -12.2864738815        5.0230187083        3.5523807245
 O       -12.9353893683        4.1228862545        3.8725529518
 C       -11.6351487517        4.7513861735        2.1348132274
 C       -12.6836821840        4.1058411696        1.2354240972
 C       -12.1136930853        3.5907355658       -0.1322023477
 O       -10.9204395448        3.6901071584       -0.4155846995
 C       -13.0634557838        2.9198158732       -1.1507625257
 C       -12.2508102461        1.5623578031       -1.7172091020
 O       -11.6525325674        1.7226591245       -2.7781824183
 C       -12.1342443231        0.1038420343       -1.1167577433
 C       -11.6366120720        0.0388894319        0.2559146131
 C       -10.1625666078        0.1226222959        0.4033256640
 O        -9.3059393358        0.8057193683       -0.1775649161
 C        -9.6202497104       -0.7454435665        1.5552875196
 C        -8.8858117524       -2.0458183295        0.7673734492
 O        -9.5655498351       -3.0574011019        0.8206326929
 C        -7.6207310556       -1.8229412566        0.0929292310
 C        -7.2490814000       -2.7919476988       -1.1432130471
 C        -7.4903708713       -2.2239692205       -2.5455198325
 O        -8.5963610408       -1.8547031706       -2.8333161534
 C        -6.3241277632       -2.4667577922       -3.6031354564
 C        -5.6283397353       -0.9826238955       -3.4616151150
 O        -4.7446846993       -0.7947576786       -2.6006185137
 C        -6.0515776920        0.1762601826       -4.3804856929
 C        -5.5752146522        1.5700821911       -3.8777211312
 C        -6.7143935666        2.4515751137       -3.2133290280
 O        -7.5147146275        2.0604163516       -2.4249515394
 C        -6.5653633778        3.9255130555       -3.1443111157
 C        -8.2871787020        4.5089255627       -3.5315304660
 O        -9.2431620680        4.3410347972       -2.8436557986
 C        -8.3580456164        5.3858651852       -4.7316995069
 C        -6.4246795698        4.2556715811       -1.6241198736
 C        -5.5982873029        4.7564466800       -3.9152068730
 C        -5.3697226018       -3.6680555312       -3.2255949577
 C        -6.8620361622       -2.8700270509       -4.9815917897
 C        -8.3468218000       -0.1502333782        2.2962806660
 C       -10.5843077037       -1.2799895997        2.6264830807
 C       -14.4149439149        2.5468561046       -0.4909377246
 C       -13.4926862405        3.6989171319       -2.4251032040
 C       -10.2390308318        6.3781588740        4.4490769618
 C       -12.6684852290        6.6933549629        5.4439300040
 C       -11.1124073868       11.9454480300        4.5760115802
 C       -12.1963554058       13.8870056116        3.3437972816
 H       -11.2129969047       13.5205166268        0.7748548672
 H       -12.0123457599       11.9588625528        0.1526068246
 H       -10.2022483168       12.1564198096       -0.0182969057
 H       -13.9930011627        9.6141755204        2.9702572246
 H       -13.7163079267       10.2009178888        4.5034116737
 H       -11.6733908298        9.1076888348        4.7941870449
 H       -11.1396424644        9.3770726984        3.0902511507
 H       -10.9181616944        3.9859636329        2.4171859146
 H       -11.1690632475        5.5430089348        1.6181751586
 H       -13.5079763411        4.8052726075        1.2050510391
 H       -13.1146046936        3.2674124053        1.8260913929
 H       -11.6779753346       -0.4202782462       -1.9674132510
 H       -13.1708696251       -0.1826636255       -1.1243585449
 H       -11.8057175649       -1.0341648885        0.4828863548
 H       -12.2752780256        0.6998509073        0.8756559007
 H        -6.7403561246       -2.0736903036        0.7577371210
 H        -7.4081493988       -0.7365450104       -0.1270453493
 H        -7.9425689590       -3.5674366953       -1.2818561419
 H        -6.2693996456       -3.1534843749       -1.1544122355
 H        -7.0578366084        0.2765250105       -4.4901987327
 H        -5.5860740290       -0.1444744114       -5.3237716477
 H        -5.0643355504        2.1904825018       -4.5079011826
 H        -4.7891528596        1.3916971122       -3.1218423440
 H        -7.7275586218        6.2313901904       -4.7986664148
 H        -9.3507071700        5.7948000966       -4.9255753235
 H        -8.0183948905        4.9014575439       -5.6765448216
 H        -7.2752213452        3.9286303050       -0.9805990337
 H        -6.2123457235        5.2749881278       -1.5390032939
 H        -5.6287986638        3.6138420410       -1.1535792293
 H        -5.5580376609        5.9058064243       -3.6409606495
 H        -5.5796186846        4.5282194181       -5.0358513215
 H        -4.6754721703        4.4509369274       -3.5804036626
 H        -4.5385272536       -3.1931131889       -2.7899103415
 H        -5.1649291819       -4.1494080837       -4.1029412671
 H        -5.9766613957       -4.3141530142       -2.6173576994
 H        -7.4972097501       -2.1374920533       -5.4779779595
 H        -7.4989281456       -3.6693983858       -4.8814824410
 H        -6.0556514035       -3.2143844644       -5.6591565087
 H        -8.7021864739        0.4917568146        3.0928108893
 H        -7.7897202818        0.6166261449        1.8461108137
 H        -7.7612224158       -0.9867826562        2.5344681977
 H       -10.7862674215       -2.3654771975        2.4910598585
 H       -11.5528232823       -0.8458700948        2.4567168291
 H       -10.2540657640       -1.0304765287        3.6371414703
 H       -14.2281586511        1.9299606214        0.3821778712
 H       -15.1746703340        2.0718670996       -1.1364135799
 H       -14.7802119544        3.5538367309       -0.1190627484
 H       -12.9342040651        3.5278381777       -3.3171068516
 H       -13.5314050176        4.8474276542       -2.3264759726
 H       -14.5369210786        3.4213913845       -2.6304348797
 H        -9.9049442356        5.4361344544        4.9098297110
 H        -9.9942461291        7.3095073355        5.1329839813
 H        -9.8706690189        6.4942523099        3.4717071514
 H       -12.1805560521        6.3837098136        6.4842485313
 H       -13.6203165169        6.2475876649        5.4299766935
 H       -12.9259456419        7.7099265086        5.6424810323
 H       -10.3834411010       12.7474665168        4.8752276934
 H       -10.5124080311       11.0185887463        4.6991303221
 H       -11.8564282793       11.9932665385        5.2957911192
 H       -11.4758948802       14.6456458091        3.4358641039
 H       -12.8531078918       14.0044816216        4.2859425064
 H       -12.7453326165       14.0466239251        2.3879322414
 Na       -9.8413721043        2.4672938508       -1.7920841321
