117

 C       -10.7790426774       12.8031462333        0.4986304612
 C       -10.5379398641       12.1635181454        1.8831471693
 O        -9.6468601493       11.3248966386        2.1093328428
 C       -11.5428741751       12.5977120607        3.0560643573
 C       -12.8339982525       11.8452585971        2.8638967842
 O       -13.7545084154       12.2299120883        2.2347546852
 C       -13.0154650665       10.1796247553        3.2006405353
 C       -12.0629302787        9.2076198577        3.9656833327
 C       -12.3801443907        7.8732645316        3.2878508115
 O       -12.7633670403        7.7540147977        2.1388843945
 C       -12.0065565660        6.4199725947        4.1506819318
 C       -12.3982383578        5.1740057753        3.3507401335
 O       -13.1284580778        4.3407660827        3.7240756652
 C       -11.7067809881        5.1114887671        1.7969164522
 C       -12.7300047159        4.2696104161        0.9986239595
 C       -12.0886346997        3.5595022681       -0.0780461681
 O       -10.9032842303        3.6212935694       -0.2960672582
 C       -12.9847070339        2.7015192214       -1.1178703763
 C       -12.1656462356        1.5475554418       -1.7888162988
 O       -11.5652898528        1.8445190439       -2.8154036860
 C       -12.2445076419        0.1574011007       -1.1258814894
 C       -11.8004725358       -0.1403734678        0.2385117045
 C       -10.3638630087        0.0283661806        0.5261167048
 O        -9.7375448853        0.9028707878       -0.0821971568
 C        -9.5025439362       -0.7330090868        1.6312676070
 C        -9.0554976967       -2.0064608559        0.8456275006
 O        -9.5443708383       -3.0864239420        1.1604695065
 C        -7.7896452958       -1.7700467107       -0.0723918218
 C        -7.4640470512       -3.1242392687       -0.7945859353
 C        -7.6261234572       -2.6415889529       -2.3430110325
 O        -8.6656433542       -2.1285148924       -2.6589672003
 C        -6.3985498453       -2.6072565868       -3.3932992772
 C        -5.5923942775       -1.2686414687       -3.1795364210
 O        -4.5473331167       -1.2262413953       -2.5177935521
 C        -6.3428692177       -0.0942602347       -3.8223365165
 C        -5.6914024630        1.3025617985       -3.2789773575
 C        -6.8232664301        2.3425868640       -2.9429160343
 O        -7.8290736041        1.8122278277       -2.6380382620
 C        -6.7590227856        3.9028449167       -3.2639507048
 C        -8.2301784873        4.3381298844       -3.8053422932
 O        -9.1033443177        4.6126914681       -2.9936672322
 C        -8.2553556920        5.0925557230       -5.0462532862
 C        -6.5568366320        4.8114292100       -2.0142195461
 C        -5.4754232266        4.1066627676       -4.0857781530
 C        -5.3645449578       -3.7166530095       -3.1760326168
 C        -7.0010122007       -2.7737774938       -4.8061209181
 C        -8.3717582796        0.1913835662        2.0858671442
 C       -10.2360455924       -1.2031234977        3.0030177266
 C       -14.3285966679        2.1356747390       -0.6138134888
 C       -13.2747658588        3.8833240918       -2.0287425534
 C       -10.4772476737        6.6124294950        4.5729630788
 C       -12.6961795656        6.3725098036        5.5010402814
 C       -10.9978638544       12.5815431832        4.4370622446
 C       -11.8911876359       14.1160775535        2.8174830509
 H       -10.7439699549       13.8777399123        0.4777925551
 H       -11.6844462137       12.3743028734        0.2901078433
 H       -10.1019403455       12.3601567426       -0.1756652734
 H       -13.4502379502        9.9242329261        2.2294000194
 H       -13.9945695975       10.2424130135        3.7342503850
 H       -12.4253000931        9.0494467579        5.0217744672
 H       -11.0241795323        9.4968210859        3.8701812103
 H       -10.8022424092        4.4786405411        1.8770046602
 H       -11.4438398609        6.0016076351        1.1522696770
 H       -13.5522639457        4.8313690244        0.5033552278
 H       -13.2214675329        3.6700532930        1.7684750013
 H       -11.7961651398       -0.4489500439       -1.9978762942
 H       -13.2841004729       -0.0079566414       -1.3053209306
 H       -11.9778046602       -1.1847081946        0.3256016687
 H       -12.3759231566        0.5397735324        0.9478288000
 H        -6.9295774314       -1.4926831205        0.5436323059
 H        -7.7405010890       -0.8929943771       -0.7130619626
 H        -8.1828603782       -3.8903412284       -0.4506493702
 H        -6.3684680706       -3.3088140326       -0.7883748772
 H        -7.3991553795       -0.2952556180       -3.6304299897
 H        -6.1774217146       -0.0669188772       -4.8886983483
 H        -5.2046728950        1.6984991998       -4.1851640146
 H        -4.8618092123        1.2920009158       -2.4987966259
 H        -7.6971309366        5.9530206975       -4.7585799283
 H        -9.1571035137        5.5152472736       -5.3716925654
 H        -7.6941892210        4.8635981077       -6.0057680939
 H        -7.0200116858        4.3398699260       -1.1400795498
 H        -7.1908178604        5.6825900070       -2.0344495105
 H        -5.4536566150        4.9070468781       -1.6962024150
 H        -5.3260547474        5.2396653349       -4.1735084616
 H        -5.4457556980        3.7209750472       -5.0889270571
 H        -4.6518273692        3.7005719747       -3.7065397310
 H        -5.5088015074       -3.6966748716       -2.1089439382
 H        -4.4259231462       -3.4046969281       -3.6316804388
 H        -5.6807304565       -4.7050152644       -3.7140058893
 H        -7.9813055497       -2.2686204008       -4.8147794921
 H        -7.2751003907       -3.8128436950       -5.0390076300
 H        -6.2771959725       -2.4496627792       -5.6189522610
 H        -8.8307812988        1.1232866342        2.5183620159
 H        -7.6517372920        0.6783163155        1.4425260719
 H        -7.7366286500       -0.4175821266        2.7860191987
 H       -11.1297633583       -1.8262369089        2.9125193183
 H       -10.4435463964       -0.3165784413        3.6561236168
 H        -9.5225863816       -1.8118395824        3.4843495279
 H       -14.1606982574        1.3665079066        0.1332933336
 H       -14.8262792418        1.7565407388       -1.4448770705
 H       -15.0603912612        2.9258961000       -0.2650385034
 H       -12.3211239510        4.1756034352       -2.4572202711
 H       -13.7774650112        4.7949164074       -1.5252703696
 H       -13.8256358510        3.6347725380       -2.8943222668
 H       -10.2509914377        5.8294578022        5.2460263767
 H       -10.5164988613        7.5812946610        5.1985568092
 H        -9.8926020476        6.5950454999        3.7628236464
 H       -12.7164534824        5.2343914963        5.9205201943
 H       -13.7548199862        6.5759403308        5.6724658464
 H       -12.1072908295        6.8450745000        6.2301156315
 H       -10.3415054522       13.4444012145        4.4716377960
 H       -10.4101922174       11.6794620072        4.8789393538
 H       -11.6987680586       12.8503808829        5.2068147717
 H       -10.9621503039       14.5734103677        2.6523625789
 H       -12.5777288957       14.6015399337        3.5971481402
 H       -12.3910366104       14.2564712069        1.8633645315
 Na       -9.5234558405        2.5670280210       -1.8073770257
