117

 C       -10.5882004679       12.7540070192        0.4375502459
 C       -10.5217138045       12.1455391229        1.8843615912
 O        -9.9256680842       11.1348813508        2.0528488647
 C       -11.3785686199       12.7486419020        2.9883838483
 C       -12.7530057663       11.8094418716        2.7610599086
 O       -13.7054874358       12.4018808081        2.2405034454
 C       -12.9770744004       10.2590695555        3.1451892980
 C       -12.0661732108        9.3502140450        3.9361080669
 C       -12.3836488779        7.8246785224        3.4288513208
 O       -12.7815863284        7.7807858864        2.2763966042
 C       -12.0487776270        6.5501196241        4.2323303104
 C       -12.3432129215        5.2698821368        3.2763872857
 O       -13.1225717593        4.4260091478        3.6041397968
 C       -11.8591355836        5.1935760965        1.9242089558
 C       -12.7880252875        4.3477567901        1.0140254454
 C       -12.0674873801        3.5280654797       -0.0217930885
 O       -10.8540870383        3.6329569328       -0.0570187045
 C       -12.9218895388        2.7224046225       -1.1411731165
 C       -12.1670180401        1.5130722159       -1.7918594147
 O       -11.4047793732        1.6869291193       -2.7548473362
 C       -12.2424768637       -0.0345964265       -1.2308909439
 C       -11.9450665226       -0.1592631048        0.3253927080
 C       -10.4317471606        0.1849196876        0.6019313941
 O        -9.7970691347        0.9564457767       -0.0680409534
 C        -9.5245368775       -0.6003053094        1.6636334712
 C        -8.9995712029       -1.9810911339        0.9750922320
 O        -9.5448286298       -3.0653534909        1.2430349318
 C        -7.8155136267       -1.8516990886        0.1867819118
 C        -7.3967808036       -2.9744553365       -0.8716384913
 C        -7.6823487304       -2.6195352090       -2.3440075771
 O        -8.7751480842       -2.2463610114       -2.7375500199
 C        -6.4149428040       -2.7411581463       -3.2372921450
 C        -5.6504647065       -1.3536056443       -3.0382973911
 O        -4.5439667997       -1.1713456278       -2.4738842660
 C        -6.3365252130       -0.1005227342       -3.5996342025
 C        -5.6554257588        1.2195826448       -3.3702524505
 C        -6.8208746637        2.2031707310       -3.0661184999
 O        -7.8908898589        1.8571452468       -2.6388728522
 C        -6.7151424520        3.7561596847       -3.3035410401
 C        -8.0913975810        4.4460291832       -3.8164840947
 O        -9.0784583582        4.3485571838       -3.1305599818
 C        -8.0994640951        5.0386378482       -5.2574647112
 C        -6.5455769727        4.6269837845       -2.0436642822
 C        -5.3888011044        3.9430716961       -4.2521546383
 C        -5.3998530032       -4.0482561178       -3.1873844537
 C        -6.8311486058       -2.6612555398       -4.7966090332
 C        -8.3810292469        0.2937220609        1.9630110904
 C       -10.3285027080       -1.0903049427        2.8722726888
 C       -14.3146437322        2.0088596717       -0.5603615604
 C       -13.2915123655        3.9089379862       -2.0772910384
 C       -10.4547140429        6.6909748286        4.4607312104
 C       -12.8250529585        6.5279721116        5.5487151862
 C       -10.9479078412       12.5199956849        4.4188636762
 C       -11.7336131336       14.2585597123        2.6910310931
 H       -10.1378373448       13.6419906479        0.6031645047
 H       -11.6423027853       12.7836232636        0.1444396401
 H       -10.0376480041       12.1995478595       -0.2740879767
 H       -13.1344970056        9.9431528057        2.1051555620
 H       -13.9999204859       10.2686709793        3.3952176186
 H       -12.1481785815        9.3977744559        5.0252850121
 H       -11.0854106649        9.6965638777        3.5086456781
 H       -10.8080178892        4.9035536618        1.6741498828
 H       -11.9770235618        6.1746562494        1.5550322911
 H       -13.5205092503        4.9204126071        0.4497058999
 H       -13.3765787113        3.8066366989        1.7907613442
 H       -11.5884404376       -0.4767925914       -1.9253134015
 H       -13.2255104343       -0.3644685175       -1.6258644850
 H       -12.1788648683       -1.1914099822        0.5921829295
 H       -12.4770475490        0.6537568568        0.8990037000
 H        -6.9136558912       -1.7469247204        0.8719668547
 H        -7.7466551084       -0.7946623270       -0.2115520025
 H        -7.9974119621       -3.8314610038       -0.7103672454
 H        -6.3448833782       -3.1318014346       -0.8935536397
 H        -7.2114638542       -0.0740823974       -3.1285687823
 H        -6.5731914690       -0.1281063886       -4.6394304850
 H        -4.8419042987        1.4406227257       -3.9840495246
 H        -5.2752338201        1.2290392554       -2.3007463131
 H        -7.6421525340        5.8940596760       -5.7106575902
 H        -9.1617474307        5.1162092303       -5.5908438596
 H        -7.7250448672        4.3132405759       -5.9216804888
 H        -7.4759370414        4.6285133763       -1.3197584031
 H        -6.7192745720        5.6238270064       -2.3438300753
 H        -5.6219118637        4.4816208644       -1.4573857727
 H        -5.2059925453        4.9706634896       -4.6096035255
 H        -5.3988053209        3.3392208172       -5.2089455090
 H        -4.4432452128        3.5521870897       -3.8651354704
 H        -5.3576277582       -4.3653375198       -2.1627247979
 H        -4.5624337394       -3.6893758548       -3.7300316843
 H        -5.7952878109       -4.7761904314       -3.8571174512
 H        -7.8626788926       -2.1507544931       -4.8415145789
 H        -6.9921367293       -3.5971306934       -5.2126629020
 H        -6.0218414400       -2.1629367961       -5.4408346885
 H        -8.4595280173        1.4009501534        2.1156153291
 H        -7.7034276549        0.2867202629        1.1278902623
 H        -7.7093405789       -0.1945544093        2.6316476123
 H       -11.3945676039       -1.1265275402        2.6375527410
 H       -10.1603130438       -0.4421178766        3.6672513240
 H       -10.1226709301       -2.1468471417        3.1671584051
 H       -14.0206499475        1.2942623723        0.1264639424
 H       -15.0704731140        1.6901219050       -1.2893279273
 H       -14.8571350026        2.7794596701       -0.0261443524
 H       -12.5206189776        4.6497500722       -2.2527117756
 H       -14.2354187174        4.3921104045       -1.8451774871
 H       -13.3914220233        3.3874843928       -3.1535204662
 H       -10.1118022356        5.8997511508        5.1061486885
 H       -10.2868112702        7.6518368825        4.8950585272
 H       -10.0698019497        6.5391831105        3.4155131817
 H       -13.0825827032        5.5930829221        5.8405391064
 H       -13.8236005294        6.9499753219        5.6235044757
 H       -12.1189847357        6.9144914928        6.4470289402
 H       -10.0957501604       13.2358409002        4.7000434870
 H       -10.7540285079       11.5983230396        4.7635570556
 H       -11.6941459980       12.9100647112        5.1011421881
 H       -10.7891351557       14.7558928587        2.6816365659
 H       -12.5750854730       14.6867642348        3.2970280273
 H       -12.0943283036       14.4073188712        1.6105902469
 Na       -9.7800183530        2.7232365616       -1.6478580359
