117

 C       -10.0369094831       12.6339430823        0.4902656361
 C       -10.5567448903       11.9473067597        1.7720868190
 O       -10.2045869994       10.7666412948        1.9847303508
 C       -11.3902709184       12.6600706014        2.8473614935
 C       -12.8518204383       12.0505060011        2.7049677221
 O       -13.6885316722       12.7673941537        2.2738520723
 C       -12.9952778755       10.4736260160        2.8901590559
 C       -12.0244507354        9.5845165202        3.7642000336
 C       -12.4389147777        8.1970564079        3.3104945543
 O       -13.2101837690        8.0020369318        2.3724235230
 C       -12.0656063302        6.9005791835        4.0962386692
 C       -12.4904565032        5.5958605589        3.4021688945
 O       -13.1287601325        4.7452742229        4.0032009727
 C       -12.0727183843        5.3294456695        1.9417056578
 C       -13.0080859411        4.3719249991        1.1108419642
 C       -12.1495109380        3.5964463983        0.0852943516
 O       -10.9706833473        3.4748939401        0.3057637409
 C       -12.9820328813        2.6423936412       -0.9657677602
 C       -12.0181442998        1.3925772300       -1.5960309825
 O       -11.3706205924        1.6312555437       -2.5682583046
 C       -12.3044543733       -0.0747491611       -1.0815507010
 C       -11.8260647914       -0.2672803270        0.3091797500
 C       -10.3890895866        0.1201681676        0.5036420872
 O        -9.8720027752        1.0452568558       -0.1349879855
 C        -9.6062809685       -0.5172743134        1.6110449769
 C        -9.0080909753       -1.8224853707        1.0407186453
 O        -9.4893300233       -2.9262007290        1.2100533891
 C        -7.7194834591       -1.8559315181        0.1271687316
 C        -7.4645738643       -3.0893305302       -0.7093307623
 C        -7.6071736690       -2.7346433800       -2.2882534742
 O        -8.6782174020       -2.5497453165       -2.7874158301
 C        -6.3767797816       -2.8075236133       -3.3742178225
 C        -5.5723478323       -1.4973943554       -2.9311347634
 O        -4.5963166923       -1.4846318223       -2.2186463044
 C        -6.3879984509       -0.2426608892       -3.3376406642
 C        -5.8034739589        1.1111691310       -3.1543309618
 C        -6.9395767510        2.1734663814       -3.0799018267
 O        -8.0129415253        2.0429973947       -2.4883257787
 C        -6.5484206414        3.5699642188       -3.4786311699
 C        -7.9440055980        4.2178433708       -4.1882038617
 O        -9.0237568407        4.0416666295       -3.6742383419
 C        -7.8755019098        4.7123292129       -5.6587779898
 C        -6.1134403721        4.1718672295       -2.0385814743
 C        -5.4174365066        3.9544968925       -4.4304814816
 C        -5.5805653296       -4.0952645125       -3.0204981159
 C        -6.8115334102       -2.8254013600       -4.8253246590
 C        -8.4953474357        0.4365463875        2.1949438352
 C       -10.5617611532       -0.6345933570        2.8298531397
 C       -14.2897502075        2.2179103928       -0.3791745795
 C       -13.1404202493        3.4678843018       -2.3471508103
 C       -10.5725593437        6.5899209118        4.3876862828
 C       -12.7349949012        6.9042474302        5.4838098511
 C       -10.6477320996       12.5306067325        4.1908335425
 C       -11.4714787340       14.1624357780        2.6802931192
 H        -8.9408619469       13.0042883917        0.7109823748
 H       -10.8386058133       13.3097103155        0.1385383187
 H        -9.9258175611       11.8005086327       -0.2882956249
 H       -13.0446077811       10.2241166575        1.8612556949
 H       -14.0727304412       10.3047171509        3.1538159915
 H       -12.1661180810        9.6352839792        4.8479566447
 H       -10.9959850840        9.7072021759        3.5122152832
 H       -11.0725125379        4.9604694669        1.8335605953
 H       -11.9989428952        6.1730977101        1.1991784004
 H       -13.6408737987        5.0344743679        0.4709420405
 H       -13.6768627392        3.7486622565        1.7150357890
 H       -12.0062603070       -0.7804204845       -1.9144627131
 H       -13.3712301710       -0.1327866802       -1.0526712336
 H       -12.0063709883       -1.3269058344        0.3307286790
 H       -12.3058682324        0.3050732609        1.0878023708
 H        -6.8544039716       -1.8504372628        0.7697091798
 H        -7.5085741367       -0.9270127953       -0.3350023650
 H        -8.1999413020       -3.9082126676       -0.5201780592
 H        -6.3946144931       -3.4354637081       -0.6230523816
 H        -7.3494019477       -0.3962305552       -2.5959734537
 H        -6.9359587326       -0.3834834582       -4.3060620677
 H        -5.2514770340        1.3744212508       -4.1112328316
 H        -5.1136037781        0.9697792539       -2.3407430706
 H        -7.1716020870        5.5347110475       -5.7939696799
 H        -8.7620008462        5.0698441634       -6.1061358081
 H        -7.3267783517        3.9791308798       -6.3611204998
 H        -6.8258829049        4.8493062206       -1.8067137454
 H        -5.2724245873        4.8779102293       -1.9931709070
 H        -5.9448425040        3.4275055236       -1.2699817242
 H        -5.5156244007        5.0688714900       -4.6159168244
 H        -5.3411667407        3.5954776846       -5.4506585963
 H        -4.4714781289        3.8033137671       -4.0607389670
 H        -5.1842076598       -3.8632892695       -2.0881245105
 H        -4.9173030869       -4.1891739307       -3.8232902761
 H        -6.2851872598       -4.9559583861       -2.9283233793
 H        -7.5487007331       -2.1503674628       -5.1038278111
 H        -7.0823589125       -3.8800454130       -5.1018055182
 H        -5.9285749025       -2.5903783159       -5.3555963037
 H        -9.0071029251        1.1361443348        2.8918432161
 H        -7.8264653597        1.0058120563        1.5382141767
 H        -7.7390445447       -0.0174310114        2.8970071962
 H       -11.2792833726        0.1837993485        2.8767427198
 H        -9.9766184429       -0.7480630536        3.8031934870
 H       -11.2036733282       -1.4405032276        2.6137382357
 H       -14.0734975092        1.6630736056        0.5893155184
 H       -14.7880173434        1.5665578186       -1.0930148572
 H       -15.0669905652        3.0146821083       -0.2404772800
 H       -12.7142391888        4.4330737526       -2.0728852610
 H       -14.2001918258        3.6933782213       -2.5492407287
 H       -12.6485692840        3.1648638712       -3.1789227897
 H       -10.5919248351        5.5913216104        4.8569091731
 H       -10.3085100074        7.3880704356        5.1912775747
 H        -9.9873622832        6.6303928591        3.5211116977
 H       -13.0286992210        5.9260646403        6.0199852179
 H       -13.7035728649        7.3020977304        5.4294119336
 H       -12.2775767540        7.5273632568        6.1401529522
 H        -9.7840391495       13.1018189777        4.2930835911
 H       -10.4204251739       11.4469572618        4.5701331758
 H       -11.2797050386       12.8418567408        5.0336646746
 H       -10.5325507267       14.7153841965        2.7287987002
 H       -12.1964506656       14.3847880236        3.4622681649
 H       -11.9997351528       14.4805150396        1.8427615707
 Na       -9.7982499362        3.0595787486       -1.7485048719
