117

 C        -9.8106368883       12.6289167452        0.5456285178
 C       -10.4299354497       11.8636762376        1.6787075205
 O       -10.2261774221       10.6740044988        1.8574221996
 C       -11.2882582540       12.6712948280        2.8547238268
 C       -12.7069406681       12.1409446821        2.7248398863
 O       -13.6780240704       12.7790387914        2.4296750663
 C       -13.1515809067       10.5919422772        2.8082031120
 C       -12.2416146690        9.6713224735        3.6474965455
 C       -12.6095980186        8.2640896054        3.1935300021
 O       -13.4377898828        8.1069501673        2.3063786359
 C       -12.1170781549        6.9513782275        4.0759112035
 C       -12.6649759462        5.5641954712        3.4455229270
 O       -13.2291665321        4.7354667999        4.0478501885
 C       -12.1779009089        5.4443812695        1.9687030760
 C       -13.0430287349        4.3708460289        1.1560983590
 C       -12.2321900220        3.4573211530        0.2189963253
 O       -11.0234415645        3.4728010775        0.2079940939
 C       -12.9972242653        2.6580338091       -0.9826111568
 C       -12.2110992719        1.4868871716       -1.5024821296
 O       -11.2886093524        1.5064465462       -2.3387294545
 C       -12.5075119410       -0.0466657036       -1.0621371751
 C       -11.7978451221       -0.4188211033        0.2673105219
 C       -10.2806099727        0.2693453930        0.5294170759
 O        -9.7931932157        1.0460883367       -0.2925334377
 C        -9.5481901374       -0.4087984679        1.7150221888
 C        -8.9291588016       -1.8669679217        1.0498731873
 O        -9.6172311743       -2.8549131772        1.2449300967
 C        -7.7235259867       -1.7084290752        0.0748038480
 C        -7.5601952941       -3.0131162097       -0.7526418834
 C        -7.7314418539       -2.8965064914       -2.3268198073
 O        -8.8508480169       -2.6070639013       -2.6955786065
 C        -6.3488438951       -2.9767311124       -3.2172346173
 C        -5.7030031610       -1.5786950165       -2.8391399128
 O        -4.6096345555       -1.5621680633       -2.1822718412
 C        -6.4780449680       -0.3388778691       -3.2691201618
 C        -5.7288604934        1.1010258934       -3.1055679039
 C        -6.8877759818        2.1751469620       -3.1446093505
 O        -7.7516649014        1.8597933262       -2.4481448288
 C        -6.5846449277        3.7224595710       -3.5642017589
 C        -7.8985214149        4.1513587239       -4.2488326754
 O        -9.0771779571        4.1383201770       -3.8815045641
 C        -7.7320703986        4.5487792109       -5.7115475238
 C        -6.1834545814        4.2882224316       -2.1941764050
 C        -5.2926937123        3.7299170296       -4.4396572048
 C        -5.3431585183       -4.2122725076       -2.9609321404
 C        -6.8821986780       -3.0449403639       -4.6112795512
 C        -8.4151776044        0.5093075036        2.2440967486
 C       -10.5123719257       -0.8013949751        2.8600399454
 C       -14.2732570893        2.1796231959       -0.4047696633
 C       -13.1662083275        3.6084015730       -2.2575137437
 C       -10.4664695099        6.7003144531        4.4138935759
 C       -12.7042663777        7.2271135416        5.4938939263
 C       -10.5480615487       12.4090137799        4.1629595179
 C       -11.3043467943       14.2448341640        2.5517804640
 H        -8.7981031267       12.7875571153        0.7886544615
 H       -10.4726696164       13.4456870019        0.2049417503
 H        -9.7833884315       11.8340324688       -0.2456867507
 H       -13.1253464459       10.4167770870        1.7015536904
 H       -14.2527545962       10.5406333627        2.9951800492
 H       -12.3390558259        9.7937263524        4.7410948283
 H       -11.2050817838        9.7576289346        3.3918585658
 H       -11.1617370534        4.9887162399        2.0476557879
 H       -11.9266746942        6.2086036407        1.2291474047
 H       -13.8474476529        4.8988717860        0.6026147031
 H       -13.5237466754        3.6992745299        1.8577640871
 H       -12.0455046486       -0.4772392326       -1.9805784637
 H       -13.5452074982       -0.3961496959       -1.0743002096
 H       -11.8021256003       -1.4679275073        0.1455906094
 H       -12.3092290113       -0.0522866972        1.1845081853
 H        -6.8051854890       -1.4149722918        0.5241954011
 H        -7.9569777422       -0.8306670668       -0.4634089840
 H        -8.4059296260       -3.7194329516       -0.4530645888
 H        -6.5604266597       -3.4912778713       -0.5550656046
 H        -7.3703467053       -0.4403592841       -2.6078871493
 H        -6.9985069332       -0.5519362217       -4.2630473168
 H        -4.9657649144        1.1910560405       -3.8760823694
 H        -5.2238238614        0.9282867273       -2.0633644191
 H        -7.0625853750        5.3631234516       -5.9101669242
 H        -8.6583073360        4.9238972838       -6.1871546541
 H        -7.2307886402        3.8110129687       -6.3799947148
 H        -6.7070698108        5.1777251613       -1.7088452241
 H        -5.2296773583        4.6200173610       -2.1297462589
 H        -6.1034697819        3.4025918210       -1.5302410130
 H        -4.7970338114        4.7065560393       -4.5559356337
 H        -5.3696550710        3.4856815351       -5.4695203231
 H        -4.5810299048        3.1456774861       -3.9500511575
 H        -4.5316112106       -3.8527161416       -2.2498207143
 H        -4.9938245203       -4.3425122619       -4.0066065987
 H        -5.9477752850       -5.0653533090       -2.5330015165
 H        -7.6463377508       -2.2875225425       -4.8351388245
 H        -7.1775307894       -4.0078183977       -4.7456451632
 H        -6.0416603541       -2.8106167206       -5.3152922180
 H        -8.9267507192        1.2309224821        2.9926163228
 H        -7.8138477332        1.0587125635        1.5155623545
 H        -7.6434390931        0.1150918355        2.9374827283
 H       -10.9204009537        0.0613614161        3.4230727699
 H       -10.1681287333       -1.5745501215        3.5373328037
 H       -11.3840506594       -1.0839771090        2.2971409860
 H       -14.1179609594        1.8603413511        0.6348428995
 H       -14.7000331183        1.3435583587       -0.9699178194
 H       -15.0874980494        2.9892133882       -0.4709649865
 H       -12.8820422600        4.5828445133       -2.0607707450
 H       -14.2408811643        3.6794424079       -2.3462949299
 H       -12.6831347284        3.3042465525       -3.2391798645
 H       -10.3608353366        5.7173639123        4.8112693481
 H       -10.1557214819        7.5031368310        5.1266740137
 H        -9.9609460218        6.8633970186        3.4884487896
 H       -12.5564863494        6.5074170490        6.2589774509
 H       -13.7536096528        7.4202637221        5.6306403853
 H       -12.2100504612        8.2823985126        5.8406386443
 H        -9.6446374874       13.1385927291        4.2530994415
 H       -10.2263886164       11.4692398521        4.4493817663
 H       -11.1638350698       12.6642023244        5.0319314629
 H       -10.4217160423       14.7083873833        2.3295058638
 H       -11.9071944555       14.8102536554        3.2952022891
 H       -12.0353505319       14.2495965146        1.7336148973
 Na       -9.7098499484        3.2149840704       -1.8341518071
