117

 C        -9.1958032247       12.5822549962        0.4816049682
 C       -10.2185765993       11.8144179785        1.5033461352
 O       -10.2333157207       10.5566955637        1.4279483933
 C       -10.9390848787       12.6376828889        2.5478387741
 C       -12.5788725653       12.4007575832        2.6356510952
 O       -13.2935632273       13.2210642857        3.0596011965
 C       -13.2652913082       10.9683696966        2.3416827382
 C       -12.6538911041        9.8122256950        3.1947699806
 C       -13.1424636947        8.4185085540        3.0381614198
 O       -13.8662985092        8.0326775599        2.1554699176
 C       -12.4632755199        7.2361174000        3.9558937966
 C       -12.7702974809        5.7146496403        3.5274471289
 O       -13.5502260617        5.0290968649        4.0141072522
 C       -12.2069895556        5.2441164037        2.1540526261
 C       -12.8176644098        3.9312013221        1.6435161236
 C       -12.3036054912        3.6558906795        0.2897983049
 O       -11.1817684470        3.9117452272       -0.0635866766
 C       -13.1929396709        2.8729491067       -0.7623865157
 C       -12.2945568231        1.6675895378       -1.3810675766
 O       -11.4477373616        1.9866229456       -2.1843158624
 C       -12.4206953430        0.1621136677       -0.9544931919
 C       -11.7649552857       -0.2982412822        0.4084177683
 C       -10.2798558207        0.1958756295        0.6776948336
 O        -9.8201984153        0.9958793354       -0.1664035708
 C        -9.3413425862       -0.4615406001        1.8171113851
 C        -9.0065587229       -1.8383356585        1.1053531898
 O        -9.6002511200       -2.9172605589        1.1749665023
 C        -7.9362769099       -1.7443925095       -0.0112270338
 C        -7.4179903335       -3.0405046788       -0.5127351846
 C        -7.7715008802       -3.1244774027       -2.0094523497
 O        -8.9008337247       -3.0675617002       -2.4858282152
 C        -6.5137148124       -3.2621591190       -2.9316439195
 C        -5.8648434014       -1.8002957240       -2.8470878911
 O        -4.8821806072       -1.4322709927       -2.1495430950
 C        -6.5657383098       -0.6147402685       -3.4871239972
 C        -5.9458816057        0.7625974756       -3.2546806736
 C        -6.8567790323        2.0694081287       -3.1090469796
 O        -7.6620170085        1.9471300527       -2.2440181974
 C        -6.3863103119        3.4676259512       -3.6591775071
 C        -7.7104969204        4.0012020243       -4.5575702923
 O        -8.7323587576        4.0489452489       -3.9426023383
 C        -7.3695557318        4.0812915411       -6.1419515661
 C        -6.2240890980        4.5615824736       -2.5650909195
 C        -4.9266028335        3.4096500613       -4.2754164623
 C        -5.5671693998       -4.4142368413       -2.2743427433
 C        -6.8677930947       -3.5977164096       -4.3823692671
 C        -8.2321031432        0.4577174853        2.0821709749
 C       -10.2233765908       -0.7152555212        3.1218767561
 C       -14.6294914448        2.2948680440       -0.2516649659
 C       -13.3609122464        3.8745673266       -1.9426008851
 C       -10.8591427629        7.5212682662        3.7717368178
 C       -12.7735502318        6.9798811371        5.4351950686
 C       -10.4863510004       12.2591039521        3.9180989027
 C       -10.7642239528       14.2087318443        2.3765369175
 H        -8.5539149531       13.2822356413        1.0426667762
 H       -10.0259016316       13.0599813977       -0.0826499905
 H        -8.5266724889       11.8913607863       -0.1466360430
 H       -13.3183867910       10.5889064867        1.3499002443
 H       -14.2737239602       11.2520330953        2.7094849970
 H       -12.8046972230        9.9095239222        4.3015420398
 H       -11.5982900096        9.6910778508        3.0396199544
 H       -11.1738059537        5.0288308626        2.1455559563
 H       -12.1787671651        6.1322950294        1.4205626437
 H       -13.9309881667        3.9273583815        1.6414441364
 H       -12.4998096462        3.2164105997        2.4020097195
 H       -12.0588163684       -0.2230214920       -1.9635064498
 H       -13.4261922837       -0.1774096472       -0.9564080890
 H       -11.7991929156       -1.3896094945        0.4190271464
 H       -12.3195185852        0.1740105876        1.2182976427
 H        -7.1939934640       -0.9544872292        0.2192169220
 H        -8.5091843951       -1.3021987711       -0.8760692772
 H        -7.8768976610       -3.8290682956        0.0790874933
 H        -6.3532599322       -3.0884827604       -0.2361196629
 H        -7.6457611134       -0.6250794458       -3.0261180790
 H        -6.8481296215       -0.7019595780       -4.5561443688
 H        -5.3769484261        0.8573360140       -4.1609998378
 H        -5.4421018169        0.8406244340       -2.3342612315
 H        -6.5676570098        4.7147623800       -6.3755503627
 H        -8.1723652631        4.5525715805       -6.6553274307
 H        -7.0816978259        3.1559012287       -6.7289199575
 H        -6.6673668040        5.4024219976       -3.0965298833
 H        -5.2570540111        4.8697034715       -2.3628032161
 H        -6.7336598271        4.5989806406       -1.5867583834
 H        -4.7320465390        4.2585531275       -5.0348812002
 H        -4.7150282700        2.6392817593       -5.0109389899
 H        -4.2236531529        3.4925104343       -3.5349495368
 H        -4.8967815005       -3.8617017407       -1.7418119755
 H        -5.1077116408       -5.0289690895       -2.9597925076
 H        -6.2911344133       -4.9055550902       -1.6499880441
 H        -7.5993001426       -2.9339550029       -4.8132839011
 H        -7.1999692799       -4.5801659074       -4.2547365135
 H        -6.0011937719       -3.5803127398       -5.0694290503
 H        -8.5291409226        1.3594847655        2.6204451109
 H        -7.5608372593        0.7381452566        1.3382131039
 H        -7.6756376402        0.1156602352        2.9282349185
 H       -10.5571661795        0.1729032974        3.6716018553
 H        -9.5084918201       -1.3062524240        3.7614806689
 H       -11.0031973572       -1.4244474648        2.9534530818
 H       -14.6802218339        1.3397166868        0.3012465327
 H       -15.1297276892        1.9977939248       -1.1371792046
 H       -15.2559496222        2.9616883019        0.3988733979
 H       -14.0817794645        4.5799382518       -1.6404740605
 H       -13.7118123473        3.4406164441       -2.9449464932
 H       -12.3940112065        4.3587232001       -2.0751309563
 H       -10.4445307799        6.6981147395        4.3904836628
 H       -10.5900447153        8.5549667783        4.2309520601
 H       -10.5527645964        7.6028585922        2.7826658833
 H       -12.1283776456        6.1486653409        5.7012679291
 H       -13.7180088166        6.8096887979        5.7545381774
 H       -12.4602449686        7.8342673011        6.1692345902
 H        -9.3995945968       12.5106217778        4.1082010527
 H       -10.4540428357       11.2137093381        4.1489546043
 H       -11.0590039200       12.6278637485        4.7523404984
 H        -9.8353858033       14.4817156854        2.7360371074
 H       -11.4911033769       14.7882336998        3.0487527543
 H       -10.9451130560       14.5158894392        1.3479716646
 Na       -9.5001034704        3.1132641669       -1.8473043725
