117

 C        -8.7586582918       12.0729037731        0.3989050910
 C        -9.8917978164       11.5659226027        1.2078399796
 O       -10.3444814673       10.4861096792        1.0841513366
 C       -10.5874365165       12.5498406851        2.3707958710
 C       -12.1849418146       12.4028985207        2.5235139669
 O       -12.8418545987       13.0577155111        3.3506757042
 C       -13.0521159712       11.1819811070        1.8230529589
 C       -13.3082958203       10.2410434243        3.1128520824
 C       -13.5988929531        8.7219310098        2.8698347350
 O       -14.3965952481        8.3402230912        2.0608772895
 C       -12.6343603741        7.6829535662        3.7281906473
 C       -12.8700720169        6.3116716298        3.1013422896
 O       -14.0235890345        5.7782473434        3.2963611098
 C       -11.9314375163        5.5931120427        2.0531040481
 C       -12.5928577999        4.3089952523        1.6071136588
 C       -12.1625121687        3.8286311977        0.2023949124
 O       -11.0917627550        4.1818737382       -0.3068383172
 C       -13.2785796247        3.0197268680       -0.6333059527
 C       -12.3640882868        1.8972428034       -1.3068674094
 O       -11.8258742335        2.0504923861       -2.4196740531
 C       -12.3642272786        0.4438952634       -0.6495253448
 C       -11.7052924443        0.3292008350        0.6159520036
 C       -10.1515038031        0.7134230276        0.7524203026
 O        -9.6287106567        1.5570941267        0.1068079788
 C        -9.4826941609       -0.1153851558        1.8455305725
 C        -9.0385101742       -1.5851468913        1.2736644863
 O        -9.6559400538       -2.5586592815        1.6220995860
 C        -7.9574765710       -1.8042311400        0.2090755731
 C        -7.7917657103       -3.3874655681       -0.0919171306
 C        -7.8041513892       -3.6264924675       -1.6672478832
 O        -8.8571565592       -3.7181135749       -2.2329501824
 C        -6.4608098895       -3.4369965044       -2.6612734370
 C        -5.9953258352       -1.9103186284       -2.6557340482
 O        -5.1159935550       -1.4856630285       -1.9650251576
 C        -6.7308685686       -0.9544819031       -3.5795754092
 C        -6.0180392727        0.3790230558       -3.8710047052
 C        -6.6443177969        1.5329458468       -3.0436367328
 O        -7.4488170048        1.2908065989       -2.1417991630
 C        -6.2884631859        2.9738795254       -3.6354099072
 C        -7.4618502257        3.2747694161       -4.5289401310
 O        -8.6036342461        3.1881214981       -3.9283754152
 C        -7.5110379959        3.2278125958       -5.9806178831
 C        -6.2719262802        4.0590203668       -2.4941096111
 C        -4.8635722047        3.0368927249       -4.2306322731
 C        -5.2922360467       -4.3180784071       -2.3234956990
 C        -6.9627859948       -3.6840207614       -4.1546346488
 C        -8.2839354877        0.7271533810        2.3755604556
 C       -10.3170820621       -0.2989599379        3.0258346924
 C       -14.4432056745        2.5087352877        0.2519524137
 C       -13.7649279188        4.0267537003       -1.6261274948
 C       -11.1499283029        7.9664366018        3.8091045404
 C       -12.9769529387        7.5612434725        5.1773337159
 C        -9.8867788098       12.1435339482        3.6327343960
 C       -10.4404546202       14.0990647298        2.0529254908
 H        -8.2015066611       12.7845742376        1.0919294291
 H        -9.3339132089       12.8442000693       -0.2564484483
 H        -8.2843208278       11.2813082005       -0.2204135593
 H       -12.3239645660       10.7586636712        1.1009112915
 H       -13.9699884987       11.5347468200        1.4360314127
 H       -14.0598824108       10.7387618028        3.7616321560
 H       -12.4565575057       10.2208437370        3.7830808082
 H       -11.0158272005        5.2930703449        2.6694647609
 H       -11.6945335824        6.3272190845        1.2809901736
 H       -13.6147432295        4.5686935055        1.8384970154
 H       -12.3414691647        3.4648130693        2.2898302121
 H       -11.9459520644       -0.3325200817       -1.2666731828
 H       -13.4652468210        0.1819463395       -0.5134539522
 H       -11.9395199813       -0.6256697064        0.9828354009
 H       -12.1241573752        0.9820621963        1.4258241930
 H        -7.0909255423       -1.3271933091        0.6544633636
 H        -8.2736490064       -1.4163753035       -0.7595197172
 H        -8.4782732529       -3.9914828995        0.5093929116
 H        -6.9390017359       -3.6426554439        0.4942224774
 H        -7.7382920748       -0.9035005775       -3.0343680978
 H        -6.9539718421       -1.4812960197       -4.6138189259
 H        -6.3702601845        0.5478199908       -4.8133892879
 H        -5.0079247921        0.1342236916       -3.6802389298
 H        -7.4623464284        4.1633732856       -6.5650729002
 H        -8.5448359037        2.9076959403       -6.2348025885
 H        -6.8127177723        2.5776774651       -6.4533350076
 H        -6.3769731642        3.6077421985       -1.5248205901
 H        -7.1778844291        4.6543334699       -2.5473085220
 H        -5.3771587811        4.4923112512       -2.3346911095
 H        -4.7730931037        3.6855201471       -5.0334885443
 H        -4.4274861301        2.0586948184       -4.2973261079
 H        -4.1051850012        3.4481256445       -3.4876576291
 H        -5.1038607674       -4.3458499121       -1.2864941665
 H        -4.4363243874       -3.9594903840       -2.8259074791
 H        -5.4793910631       -5.2495649444       -2.7266621002
 H        -7.9735136970       -3.2809917294       -4.2007433657
 H        -7.1381578535       -4.7613770078       -4.3727020716
 H        -6.2493916328       -3.2974822402       -4.8239842988
 H        -8.4727494178        1.7764494214        2.5547939993
 H        -7.4681337112        0.8688030296        1.6615282587
 H        -7.7344885917        0.3798339609        3.2154072852
 H       -10.5537663983        0.7008685545        3.3582146981
 H        -9.9182465139       -0.9039976963        3.7534847329
 H       -11.2388377596       -0.8676736236        2.7626374120
 H       -14.2042899102        1.8379752727        1.0649661480
 H       -15.0967465608        1.8255807118       -0.3862107453
 H       -15.2102018516        3.1844359428        0.6183397208
 H       -14.0150605542        3.4177742892       -2.5153360085
 H       -13.0782632372        4.7646702353       -1.7637995811
 H       -14.6783424669        4.5431174436       -1.2428742023
 H       -10.6532034788        7.1785363934        4.4600440008
 H       -10.8567516593        8.8772964947        4.2323405991
 H       -10.7271785273        7.8372609306        2.7185900603
 H       -12.9263348605        6.5667350134        5.7349852116
 H       -14.0400825839        8.0000423971        5.2196433564
 H       -12.4776049773        8.1758099755        5.8372273118
 H        -8.8716600189       12.3939015804        3.8624138954
 H        -9.8805594633       11.0277114831        3.8260200124
 H       -10.4392531876       12.5009904320        4.4891986186
 H        -9.4445034226       14.6405162817        1.9415813071
 H       -10.8897102391       14.5001426853        2.9091233089
 H       -11.0610841431       14.3592728047        1.1799969537
 Na       -9.4365190519        2.7499727447       -2.0113165681
