117

 C        -8.7383444015       12.1645135599        0.3711723672
 C        -9.9433420141       11.5715922917        1.1868635249
 O       -10.2079853593       10.3881210564        1.0580051531
 C       -10.6681319769       12.5505641558        2.2204444439
 C       -12.0836196644       12.3999499251        2.5300051549
 O       -12.5807002496       13.1490151123        3.3008332061
 C       -13.0055049228       11.1524741480        1.9595492519
 C       -13.4819584860       10.3334110352        3.1381713260
 C       -13.5223943943        8.8207916017        2.8529274266
 O       -14.2637694642        8.3887142873        2.0107720674
 C       -12.6736013318        7.7422363256        3.7474437047
 C       -12.9312298099        6.4184535206        2.9644563252
 O       -14.0221284496        5.8484684313        3.0456045858
 C       -11.8633200888        5.7727742962        2.0093643340
 C       -12.6260146064        4.4984884857        1.5572343338
 C       -12.1795810806        3.9017331521        0.2172385824
 O       -11.0676159873        4.0378667215       -0.2422510318
 C       -13.3239764446        3.0196132557       -0.6708588253
 C       -12.4870642848        1.9248183204       -1.3098003683
 O       -11.8168399689        2.2519989183       -2.2867472801
 C       -12.3185088113        0.4955094785       -0.7713598337
 C       -11.6162279083        0.2176683541        0.5681726685
 C       -10.1052976196        0.7292117746        0.7959249605
 O        -9.5613607272        1.5102057732        0.0087898751
 C        -9.3887203597       -0.0762361617        1.9711754405
 C        -9.0363392902       -1.5499966457        1.3253393728
 O        -9.7989500458       -2.4301166739        1.7216576698
 C        -7.9350464706       -1.6820982053        0.1876408813
 C        -7.7002033342       -3.2296043191       -0.1860451724
 C        -7.7988885902       -3.4596100880       -1.6864285063
 O        -8.9017254116       -3.8869124145       -2.0274848521
 C        -6.4999247274       -3.4738292753       -2.6786957723
 C        -5.9676775674       -1.9333760809       -2.5970125483
 O        -5.1776398390       -1.5617786236       -1.8306812175
 C        -6.7792968862       -1.0534765880       -3.7005463983
 C        -6.1749556265        0.3823396901       -3.9013309765
 C        -6.7286047582        1.4815936297       -3.0132921521
 O        -7.4774330303        1.3717359654       -2.0312340341
 C        -6.2740035798        2.8958440084       -3.5347745027
 C        -7.5032287975        3.0624783658       -4.5348180369
 O        -8.6319710581        3.2270571167       -4.0493376192
 C        -7.4048428414        3.0926327442       -6.0821507886
 C        -6.3864869221        3.8970287202       -2.2132394079
 C        -4.9884340551        3.0246853894       -4.3906390100
 C        -5.4414170834       -4.4080221446       -2.0837839177
 C        -6.9291389504       -3.9094279753       -4.1301029764
 C        -8.0524403524        0.6771091046        2.2696300635
 C       -10.3144822722       -0.3005813821        3.2881901144
 C       -14.4231992456        2.5470881871        0.2049351890
 C       -13.7957258558        4.0572506384       -1.8046492060
 C       -11.1603302857        8.2447410645        3.7209619766
 C       -13.1694833026        7.4483659040        5.3289123170
 C        -9.9625475274       12.1737686068        3.5565823491
 C       -10.2939034829       14.0344417353        1.8451289176
 H        -7.9732505377       12.4460387189        1.2128154233
 H        -8.8693252364       13.1188854878       -0.1892802385
 H        -8.4315369830       11.2884130981       -0.2760222987
 H       -12.3639327172       10.5333961683        1.3265148512
 H       -13.8272452691       11.6629774441        1.4439398141
 H       -14.4966531075       10.5660476599        3.3224655868
 H       -13.0475585984       10.5388449284        4.1367267590
 H       -10.9023833152        5.4506050232        2.5096203673
 H       -11.7221318124        6.4684111749        1.2076360408
 H       -13.6865076997        4.7799996614        1.7487135579
 H       -12.4147273055        3.6903943777        2.2798175760
 H       -11.7466077505       -0.0912839783       -1.4971962522
 H       -13.3515931232        0.0160178917       -0.6792866308
 H       -11.6923546212       -0.8973534212        0.6634605968
 H       -12.1635872519        0.4766095412        1.4387245961
 H        -7.1158665092       -1.1011923718        0.5823216666
 H        -8.3332603331       -1.3184640404       -0.6835442957
 H        -8.3081378707       -3.8863786182        0.4565940763
 H        -6.7410667145       -3.4907730522        0.2883898924
 H        -7.8870275505       -1.1786527189       -3.3836148367
 H        -6.6602631949       -1.5463642229       -4.6201629036
 H        -6.3118383815        0.6372932146       -4.9447461781
 H        -5.1530009508        0.1844352289       -3.4782183484
 H        -7.2488939714        4.1161841127       -6.5270170112
 H        -8.1809647028        2.6608476161       -6.6684638994
 H        -6.4627280516        2.5906882560       -6.3288511534
 H        -7.1127110087        3.6270581926       -1.5117784808
 H        -6.8016164765        4.8334193313       -2.6102162210
 H        -5.4906490163        3.9334758896       -1.6367812876
 H        -5.1910534256        3.6757381342       -5.2994865517
 H        -4.5606812975        2.0119603686       -4.4626116997
 H        -4.2474965254        3.5551856321       -4.0063977334
 H        -5.3607052447       -4.3023259057       -1.0190202430
 H        -4.5001955148       -4.3493979941       -2.5934576279
 H        -5.8462792856       -5.4602364864       -2.3268696155
 H        -7.9147408266       -3.6994378734       -4.3148451723
 H        -6.9517603876       -5.0330064246       -4.1916505333
 H        -6.1994437658       -3.6105923889       -4.7965274334
 H        -7.9603224003        1.7253001915        2.3100329640
 H        -7.1768151573        0.4755655410        1.5980563943
 H        -7.5423951771        0.2606825826        3.1833968626
 H       -10.5114308614        0.6448297846        3.7844654607
 H        -9.7858409075       -0.9923489720        3.9986932783
 H       -11.2227029988       -0.8809779016        3.0544251562
 H       -14.3269060093        1.9133469839        1.1233379547
 H       -15.0237554740        1.8812953695       -0.4765125345
 H       -15.2158786273        3.2405068333        0.3745084125
 H       -13.6758256733        3.5038461289       -2.7707261808
 H       -13.1032225845        4.8776868686       -1.7102627703
 H       -14.7460665063        4.3819493131       -1.6752708801
 H       -10.3594408089        7.6106043600        4.1486379733
 H       -11.2381499770        9.0740414655        4.5137153671
 H       -10.8319221486        8.6650581444        2.8271968692
 H       -13.0247494951        6.3173294198        5.6502325378
 H       -14.1629592823        7.7210603953        5.4787549541
 H       -12.6316232684        7.9846471473        6.1381405478
 H        -8.9397052183       12.2738108328        3.6468668401
 H       -10.0848495844       11.0267725209        3.7489028867
 H       -10.3471182227       12.6288309531        4.4871203384
 H        -9.2095686256       14.2317424263        1.9831068272
 H       -10.7321118652       14.4733807838        2.7175130972
 H       -10.6290585751       14.4953924014        0.9773468948
 Na       -9.5087963217        2.5341441342       -1.8743254515
