117

 C        -8.6527262504       12.1513152554        0.2721425344
 C        -9.8648542087       11.5748231003        1.0757498814
 O       -10.1649988528       10.3614240979        1.1022823231
 C       -10.5262468881       12.4902889411        2.1320246701
 C       -12.1552596955       12.3871550484        2.5083639165
 O       -12.5236084773       13.2384469185        3.2419309366
 C       -12.9385007916       11.1208427422        2.1281249684
 C       -13.6261416919       10.3876740149        3.2931549531
 C       -13.6599865378        8.8498452063        3.0237312416
 O       -14.0703080288        8.4475722738        1.9295954309
 C       -12.7104532565        7.8671464898        3.7764990549
 C       -12.9807687456        6.4927511661        2.8911944418
 O       -14.0518689077        6.1045962069        3.0645592774
 C       -11.9690529728        5.8609322511        1.9607156028
 C       -12.5779372842        4.4853356954        1.3995408895
 C       -12.0988103962        3.9035855735        0.1341381726
 O       -10.9598891098        3.9074618886       -0.2598672010
 C       -13.2483192757        3.1276137450       -0.6923394461
 C       -12.3852494315        2.0140074182       -1.3188570981
 O       -11.7189407474        2.3724906191       -2.2503103765
 C       -12.2746718976        0.5253291842       -0.9253877565
 C       -11.5944169266        0.1407955554        0.5556873031
 C       -10.1530287905        0.5241062489        0.8722656004
 O        -9.4945835786        1.3170458880        0.1799866184
 C        -9.2342115269       -0.1089837664        1.9678376160
 C        -9.1093247524       -1.4844912831        1.3765528600
 O        -9.8185422636       -2.3715509976        1.7123807009
 C        -8.0531542869       -1.5446596204        0.2705551498
 C        -7.6056161162       -2.9628439622       -0.2109656304
 C        -7.8503286938       -3.4946509266       -1.6191024761
 O        -8.8706437439       -3.9695126777       -2.0523595100
 C        -6.6233681946       -3.5378682123       -2.5557658606
 C        -6.1778059040       -2.0887272605       -2.6663312306
 O        -5.3436946660       -1.6228725811       -1.8484302418
 C        -6.7673006173       -1.1579387628       -3.6693810297
 C        -6.0907202038        0.2783566096       -3.8160826332
 C        -6.6233352976        1.3951887764       -2.9568131874
 O        -7.4275908410        1.2936872685       -2.0882273818
 C        -6.4290475419        2.8871366092       -3.5681175489
 C        -7.6649280882        3.0875227811       -4.4385142475
 O        -8.7956591607        3.2697997320       -4.1846038986
 C        -7.3063879241        2.9743176493       -6.0220008012
 C        -6.4703434431        3.7565742698       -2.3265181000
 C        -5.0773830591        3.0726141891       -4.2439880075
 C        -5.5635903502       -4.4643934755       -1.8512067523
 C        -6.9138835883       -4.1175678305       -3.9084046782
 C        -7.9354864297        0.6472217643        2.2248459267
 C       -10.0575029007       -0.1654020438        3.2517587897
 C       -14.4423683543        2.5584476743        0.1583218853
 C       -13.7957565437        4.0499735402       -1.8881002883
 C       -11.2810958632        8.4307840919        3.6721332018
 C       -13.2921797901        7.5322824719        5.0944820430
 C        -9.8974636261       12.1650693928        3.4834723869
 C       -10.1582085573       13.9726061002        1.7609355708
 H        -7.8930768855       12.2351026892        1.0067334032
 H        -8.7310724801       13.1584525169       -0.1015022165
 H        -8.4456287406       11.3903043207       -0.5025838762
 H       -12.1857033958       10.4916144551        1.7201684251
 H       -13.6313071067       11.5640684541        1.3494224580
 H       -14.6593146008       10.7033580450        3.3581532569
 H       -13.2710588651       10.5427774407        4.3158803555
 H       -11.0349874419        5.6363375459        2.3760882007
 H       -11.9109656593        6.5435652375        1.0902303106
 H       -13.6876073920        4.7909573335        1.3092192143
 H       -12.6012198106        3.6632934224        2.1244418545
 H       -11.6898161846        0.0099450493       -1.7670096493
 H       -13.2541548942        0.0623372557       -0.8399640627
 H       -11.7870898138       -0.9542084119        0.8207035458
 H       -12.1877782454        0.5538143893        1.3799085777
 H        -7.2746945639       -0.9435036459        0.7016258582
 H        -8.4537531752       -1.0977895025       -0.6266875696
 H        -7.8561799967       -3.6573451446        0.5730569508
 H        -6.5158493971       -2.9144250897        0.0483361857
 H        -7.7888227622       -1.0528831956       -3.3928029030
 H        -6.6710546992       -1.5913681701       -4.6317860892
 H        -6.5610616615        0.5519690957       -4.8383135010
 H        -4.9737615745        0.2018345232       -3.6919658080
 H        -6.9671172623        3.9329965463       -6.3885957861
 H        -8.0614474504        2.6825864426       -6.7524268420
 H        -6.3781589754        2.3384606469       -6.2026713293
 H        -7.4202044689        4.0336027594       -1.8099884694
 H        -6.0827152335        4.6952435530       -2.6425230519
 H        -5.7994004234        3.2339189735       -1.5436374239
 H        -5.1835654755        3.9650330142       -4.8964366733
 H        -4.7111450738        2.1079017116       -4.5764398951
 H        -4.2265275006        3.4678847818       -3.5882333134
 H        -5.2421936041       -3.9954754883       -0.8567945200
 H        -4.7029372881       -4.7432496103       -2.5617626967
 H        -6.0808388443       -5.4591873345       -1.6260808617
 H        -7.8605331114       -3.9399635844       -4.3839572037
 H        -7.0049739255       -5.1228412811       -3.7477851567
 H        -5.9534064112       -4.0636253839       -4.4599988327
 H        -7.9055404876        1.7377925865        2.4548010707
 H        -7.0378388312        0.5887218404        1.6437942226
 H        -7.5234023409        0.1237817799        3.1175261136
 H       -10.2449780478        0.7906934336        3.7816013244
 H        -9.3969545861       -0.8115844231        3.9350865444
 H       -10.9144061130       -0.7955368271        3.0767076123
 H       -14.1788932292        1.9865320119        1.0738697480
 H       -15.1345213149        1.9179800738       -0.3473248903
 H       -15.1842758372        3.3285797103        0.4630290729
 H       -13.6456726700        3.5104355020       -2.7516832236
 H       -13.2824721010        5.0672461966       -1.8704454607
 H       -14.8843658980        4.1336399098       -1.6916521864
 H       -10.4559562268        7.7542280965        3.7962099119
 H       -11.1885053676        9.1208093202        4.5577568759
 H       -11.0666922841        8.9515851708        2.7783523583
 H       -12.9297688559        6.6233007962        5.3460534247
 H       -14.3752136111        7.4807730716        5.1562893937
 H       -12.9365463627        8.1904072623        5.9872124154
 H        -8.7692605719       12.1824800089        3.6163142930
 H       -10.1419582876       11.2889034863        3.9570596887
 H       -10.1973973883       12.9574062759        4.2076674225
 H        -9.1671110123       14.2118528941        1.8542082305
 H       -10.7580914991       14.6275991660        2.4652563039
 H       -10.4354870339       14.2830269131        0.7393380498
 Na       -9.6668749157        2.4537301566       -1.7980991380
