117

 C        -8.8780538243       11.9094989062        0.0859127601
 C        -9.7705209061       11.4672831316        1.2317745333
 O       -10.1561210156       10.2680080834        1.1643224434
 C       -10.1829564524       12.5764244194        2.1079746332
 C       -11.7832304217       12.5377955211        2.4570400405
 O       -12.3508813173       13.4519312338        2.8990505181
 C       -12.5996892871       11.2152590349        2.0750110146
 C       -13.3888441640       10.6893778667        3.1945428264
 C       -13.6536993680        9.2211898741        2.7114344855
 O       -14.3135317973        8.9662323379        1.7185779293
 C       -12.9220090168        8.0642059807        3.5196689151
 C       -13.2571308870        6.6684838753        2.8352792607
 O       -14.1711153712        6.0011323870        3.1623490318
 C       -12.2230229181        6.1828658178        1.7412490228
 C       -12.7786108981        4.8524998114        1.0791642683
 C       -11.9714057375        3.9681679299        0.1098225727
 O       -10.7819473551        4.1725219976       -0.0325523866
 C       -12.8845579263        2.9753645274       -0.6999006633
 C       -12.1190357124        1.9152006892       -1.4639226381
 O       -11.8207676646        1.9955961308       -2.6295941443
 C       -11.9810744604        0.5553126181       -0.7518535514
 C       -11.6231499648        0.5512961398        0.7601171325
 C       -10.0581080768        0.7564643565        0.8985757931
 O        -9.4500140512        1.3969301243        0.0199758052
 C        -9.2505418617        0.0210551131        1.9150582672
 C        -9.2108565878       -1.3960632389        1.3661000799
 O        -9.6952564182       -2.2685018267        2.0195490989
 C        -8.3150495907       -1.5647807269        0.1012938631
 C        -7.7180441524       -3.0921684041        0.1255865407
 C        -7.9056678669       -3.7710725808       -1.2542423906
 O        -8.9974647793       -3.7281584516       -1.7946095562
 C        -6.6848635119       -3.7731093560       -2.2646499172
 C        -6.2419371719       -2.2623218595       -2.5059181990
 O        -5.4513295759       -1.8089863466       -1.7185879443
 C        -6.6889408603       -1.3644218612       -3.8161606671
 C        -6.0255278091        0.0398433340       -3.7264875037
 C        -6.8707226065        1.0130095721       -2.9313651110
 O        -7.8898232520        0.9119481792       -2.3211552852
 C        -6.5923486782        2.5829384409       -3.3780996708
 C        -7.8118689158        2.8873831531       -4.5219411215
 O        -8.9150767691        3.0425960663       -4.0475893705
 C        -7.6062852031        2.9130762564       -5.9464419284
 C        -6.8944752603        3.4816190493       -2.2427665580
 C        -5.1407100106        2.9365615086       -3.9246317038
 C        -5.4243973524       -4.4960581427       -1.5922584075
 C        -7.1033983548       -4.5847413496       -3.4748133516
 C        -7.8828835822        0.6628652238        2.1946607281
 C       -10.0577872864       -0.2618503532        3.2319003819
 C       -14.0399851563        2.3508511977        0.0465653778
 C       -13.5287035835        4.0243796030       -1.7999012495
 C       -11.4111613537        8.2060594219        3.4926683467
 C       -13.5440366152        8.1432461678        5.0036179007
 C        -9.3839779194       12.3195485182        3.4269638611
 C       -10.0065396807       14.0567500833        1.6233000005
 H        -8.0782686052       12.5340948559        0.5649300026
 H        -9.3082892613       12.7492522809       -0.5088118292
 H        -8.5270122626       11.0155959147       -0.5519137985
 H       -11.8231521291       10.4828043096        1.9327479229
 H       -13.1598814477       11.3356838357        1.1341889607
 H       -14.3219041724       11.1790823685        3.3214430572
 H       -12.9001059611       10.5716534197        4.1790083105
 H       -11.2585221541        5.7553322929        2.1246771346
 H       -12.1068892025        6.8212562281        0.8761040295
 H       -13.8300154011        4.9606691990        0.7682971007
 H       -12.9229429484        4.2061184532        1.9376652320
 H       -11.0951880695        0.1422693452       -1.2615820821
 H       -12.8448759888       -0.0912492385       -0.9571879495
 H       -11.9887180404       -0.3066081972        1.3984086569
 H       -12.1205618524        1.3187319446        1.2580443292
 H        -7.5303575763       -0.8059882577       -0.0836691077
 H        -9.0937268089       -1.4560548791       -0.6000156758
 H        -8.1851995887       -3.5829129960        0.9914343415
 H        -6.6522263970       -2.9521765601        0.4901828793
 H        -7.8348170780       -1.1098350610       -3.6574234207
 H        -6.4131487314       -1.9082522537       -4.7098969583
 H        -5.9320281158        0.4505607956       -4.6933881089
 H        -5.1600147817        0.0017456906       -3.0959952673
 H        -6.6513921544        3.1381478611       -6.4295004565
 H        -8.3251183171        3.5856633896       -6.3154074547
 H        -8.0137046613        1.9261092904       -6.2922263759
 H        -7.3144447220        4.3579299292       -2.6295127867
 H        -5.9923963170        3.6926194034       -1.7480309476
 H        -7.6101282906        3.1105674933       -1.3987011291
 H        -4.6386867310        3.7204545013       -3.3132393547
 H        -5.2214854171        3.0032445942       -4.9788362496
 H        -4.5547030310        2.0454841535       -3.7555248718
 H        -4.5824036842       -3.8843187196       -1.5944544470
 H        -5.2428621371       -5.4084463654       -2.0238311759
 H        -5.5148398282       -4.6597823988       -0.5315116897
 H        -7.6285086040       -3.9819575687       -4.2123327839
 H        -7.7965460559       -5.3808257981       -3.2950036719
 H        -6.1945235519       -5.0198018758       -3.9690855387
 H        -8.0043704976        1.0947112167        3.1560348597
 H        -7.5177658137        1.4687375602        1.5964959483
 H        -6.9495815921        0.0975012977        2.1814279215
 H       -10.3774989392        0.7203253002        3.4212290747
 H        -9.4688816005       -0.5753263796        4.1175108402
 H       -10.9377676612       -0.7752384976        3.0650713316
 H       -13.8001566437        1.8656963898        1.0302380880
 H       -14.5547337756        1.6344501687       -0.5648065042
 H       -14.8972371013        2.9750547549        0.1813178569
 H       -13.1021827436        3.8380303952       -2.7368452415
 H       -13.0618342185        4.9307075816       -1.4099901532
 H       -14.5768745467        4.0172039971       -1.7890849109
 H       -10.8104792579        7.5740732314        4.1673644763
 H       -11.0952646484        9.3266151216        3.6870173360
 H       -10.9523631220        7.9523676921        2.5645630586
 H       -12.8234772403        8.3584271670        5.7710896945
 H       -13.9323729353        7.2142700846        5.3271809373
 H       -14.4189906113        8.9960529566        5.0335888188
 H        -8.3483019881       12.5294416764        3.1684414669
 H        -9.3633354372       11.2952637384        3.7295625802
 H        -9.4229661982       12.8721705796        4.3733491026
 H        -8.9797658292       14.2101448288        1.3609204681
 H       -10.3120387254       14.7265813323        2.4830378868
 H       -10.5897131466       14.4193075946        0.7943075229
 Na       -9.3551331915        2.6262910131       -1.9494212109
