117

 C        -9.4939755484       11.7478864267       -0.6027460701
 C        -9.2958684224       11.4564342586        1.0059976325
 O        -8.8264402974       10.4196563819        1.3758131113
 C        -9.6202242570       12.7015466186        1.8918203851
 C       -11.3539875036       12.6960520453        2.0058052268
 O       -12.0958294943       13.4626937760        2.4719514018
 C       -11.9898461432       11.3411063901        1.5841677914
 C       -12.9202112456       10.8036783948        2.7371802464
 C       -13.4381251966        9.4721016332        2.1935858099
 O       -14.2773637966        9.3551502093        1.3405669387
 C       -12.8617647010        8.3567780716        3.1051452989
 C       -13.2856975561        6.8119963880        2.5342373750
 O       -13.9552896728        6.0293585003        3.1950168575
 C       -12.5981126537        6.3065054916        1.0416941667
 C       -13.3600078650        4.9980225152        0.7665884261
 C       -12.6100392261        4.1272590108       -0.3275393500
 O       -11.4016397565        4.2060438049       -0.4095658828
 C       -13.3251003118        3.0726972351       -1.1755524598
 C       -12.3347025529        1.8577232840       -1.2328125112
 O       -11.5924899036        1.6932541055       -2.2223703345
 C       -12.2308107382        0.6626026795       -0.1659595806
 C       -11.4764752449        0.9775873142        1.2510132153
 C        -9.8990171595        0.8230701435        1.1518929212
 O        -9.2066515790        1.3866706106        0.3571437581
 C        -9.1189735369        0.1625939093        2.3852754288
 C        -9.0527028029       -1.4056930424        1.9276575046
 O        -9.3219408861       -2.2207300323        2.7511175990
 C        -8.8991641996       -1.8858575323        0.4375158484
 C        -8.0586341558       -3.1143987619        0.4402650173
 C        -8.0481211524       -3.7716183645       -0.9615108053
 O        -9.0575267736       -3.6372442491       -1.6141983649
 C        -6.7417006864       -4.0895672854       -1.7723250061
 C        -6.2200726877       -2.6299328460       -2.2863944617
 O        -5.3421465114       -2.2111494807       -1.6548968925
 C        -6.9149449782       -1.7873503145       -3.4435170152
 C        -6.1711912378       -0.4046490502       -3.5967485555
 C        -7.1052669165        0.7913291760       -3.2395222684
 O        -8.3005403912        0.6339691389       -2.9024104170
 C        -6.7227428281        2.2176597561       -3.4814374492
 C        -7.9191608051        3.1018278492       -4.2401903383
 O        -8.7526344139        3.6973756893       -3.5528355924
 C        -7.9656907272        2.9942886087       -5.7450456128
 C        -6.5611835616        2.6978122021       -2.0238686154
 C        -5.3744915299        2.4738141063       -4.1109337283
 C        -5.7592761314       -4.7764792289       -0.7229694487
 C        -7.2084510902       -5.1388247692       -2.8653857046
 C        -7.6878724958        0.7162807357        2.2412104076
 C        -9.6761882976        0.3484110886        3.8039554637
 C       -14.6708956524        2.6423985649       -0.7382809098
 C       -13.3205480825        3.8926905696       -2.5934598036
 C       -11.4067534552        8.2992405720        3.4776173302
 C       -13.7448719413        8.5868341049        4.3979485136
 C        -9.2088842966       12.4941920038        3.3038538229
 C        -9.3460424360       14.1013304263        1.4073757750
 H        -8.8101044533       12.4696141620       -1.1554460104
 H       -10.5707108699       11.9672753650       -0.7313830325
 H        -9.2417420577       10.8484059511       -1.2413709530
 H       -11.2150231763       10.7032819976        1.0848522464
 H       -12.6146753308       11.5538020901        0.7238077445
 H       -13.8126648949       11.4350918601        2.7871755686
 H       -12.4776268667       10.7208487386        3.7022987590
 H       -11.5148277153        6.3545091406        1.2361057789
 H       -12.7925794797        7.0055579144        0.2427538228
 H       -14.3401936261        5.2811244295        0.4177915383
 H       -13.6689870654        4.5027935358        1.7430651302
 H       -11.7070502160       -0.1347560106       -0.6222748907
 H       -13.2729194228        0.3446797513        0.1861606312
 H       -11.9660580463        0.3374404817        2.0101427526
 H       -11.7288886330        2.0449413509        1.3603652769
 H        -8.5321734351       -1.1381748739       -0.2195088120
 H        -9.8533742517       -2.1136696151        0.0079776033
 H        -8.5889388083       -3.8853416710        1.0380311606
 H        -7.0133971457       -2.8924161783        0.6211148939
 H        -7.9332244196       -1.6984306153       -3.2241120755
 H        -6.7807777118       -2.3311448870       -4.3041379688
 H        -6.0555873348       -0.1426339253       -4.7024031861
 H        -5.1901186982       -0.2604473896       -3.0691512431
 H        -8.9414678041        2.5004435358       -5.9874988167
 H        -7.0965346597        2.6051740168       -6.3145153015
 H        -8.0228561615        4.0318695746       -5.9815734873
 H        -5.8729439054        2.0876829993       -1.5808768766
 H        -7.4514865173        2.5906170258       -1.4646187508
 H        -6.1491481339        3.7278404312       -2.0692910482
 H        -5.4115911925        3.0356057591       -5.1109559676
 H        -4.8838231929        1.5416251676       -4.4787328797
 H        -4.9395645006        2.7787394211       -3.2596392275
 H        -5.7435571658       -5.8111266838       -0.9365735835
 H        -6.0104749494       -4.8551003562        0.3400552898
 H        -4.6876876099       -4.3703662400       -0.5876861711
 H        -7.6667059899       -4.6454559037       -3.6700087473
 H        -7.8181389093       -5.9464716595       -2.3548081515
 H        -6.4389707638       -5.5636485495       -3.4083281055
 H        -7.7365969280        1.6700277840        1.7960420239
 H        -7.0460227870        0.1565976064        1.5009672295
 H        -7.0022437461        0.9602926703        3.0430913938
 H        -9.6072635950        1.4000875643        3.9734329487
 H        -9.0530020427       -0.1616176023        4.4980814692
 H       -10.6365926931       -0.0708786364        4.1018005915
 H       -14.7064089964        2.1211558554        0.2124705054
 H       -15.2385418244        1.9848740396       -1.4703645092
 H       -15.1577117183        3.5674814809       -0.4884873579
 H       -12.4306690136        4.5856071697       -2.5273775489
 H       -14.1998404349        4.5270665187       -2.7158444230
 H       -13.2306454004        3.1235574052       -3.2712110242
 H       -11.1458247905        7.7022167101        4.3868323855
 H       -10.9348885917        9.3231297704        3.6626686620
 H       -10.7188749780        7.9598814021        2.7497979556
 H       -14.7947986833        8.7982387094        4.0447764626
 H       -13.4606291488        9.3358732630        4.9639412049
 H       -13.7151010821        7.5985669744        4.9419241053
 H        -8.1858557320       12.3363264911        3.5174206833
 H        -9.6565425715       11.5410924385        3.8587382155
 H        -9.5262707376       13.3002687336        3.9779427075
 H        -8.2379540185       14.2378891469        1.2459122384
 H        -9.4030305631       14.7252960951        2.2465420236
 H        -9.8879083723       14.5259066721        0.6278778333
 Na       -9.5689323742        2.6781553733       -1.6288977541
