117

 C        -9.4187855347       11.7585165283       -0.6453098984
 C        -8.8862424717       11.6115509468        0.7898283343
 O        -8.2251070231       10.6664217910        1.1167238321
 C        -9.5848420708       12.7391822074        1.7865689248
 C       -11.1985415044       12.7402466564        1.8112837763
 O       -11.8689166734       13.7051423131        1.8186991473
 C       -11.8335094792       11.2068342305        1.6854288588
 C       -13.1314407426       10.8612979910        2.3470809024
 C       -13.3809520215        9.3210281381        1.9706434642
 O       -13.5543326631        9.0880598827        0.8308068066
 C       -13.0151980541        8.0219032825        3.0445629315
 C       -13.3662930944        6.7012877520        2.3976084941
 O       -14.1012048555        5.8733664659        2.9767929195
 C       -12.8923757787        6.4130428691        0.9613875695
 C       -13.5209732384        5.2482043900        0.3570087149
 C       -12.5191672394        4.3322926294       -0.4000306519
 O       -11.3138240703        4.2617472229       -0.3420374089
 C       -13.2083705483        3.1096290170       -1.1882958936
 C       -12.3505419776        1.7823786306       -0.9681513106
 O       -11.7868185418        1.3313008818       -1.9733479250
 C       -12.3755546904        0.9864297004        0.2717292984
 C       -11.5285312340        1.4140316842        1.4791787653
 C       -10.0101230510        1.0280122231        1.2385204233
 O        -9.4855843875        1.1014406694        0.1391490068
 C        -9.2685077214        0.3660993339        2.3462087434
 C        -9.3183387291       -1.2493042966        2.1551785688
 O        -9.0638851577       -1.8203902276        3.1606422467
 C        -9.2331630289       -1.8255120487        0.7994754865
 C        -8.3417688922       -3.0842429765        0.6477043754
 C        -8.3113464566       -3.6424437018       -0.8635325197
 O        -9.1974143857       -3.6020727140       -1.6827798573
 C        -7.0467805451       -4.0377279351       -1.4768941264
 C        -6.3048334272       -2.7159538984       -2.1541256324
 O        -5.1758846850       -2.4025798962       -1.9827959231
 C        -7.2232396054       -1.7671785674       -3.0642038845
 C        -6.4562234604       -0.5264025100       -3.4701832763
 C        -7.2787008435        0.7512186373       -3.1183321963
 O        -8.4795026785        0.7490544189       -2.7027319746
 C        -6.6129249189        2.1469231537       -3.3551134777
 C        -7.7809987880        3.0200506228       -3.8489091979
 O        -8.4092509698        3.7440174346       -3.1053995334
 C        -8.0670928903        3.1887172048       -5.3093713722
 C        -5.9273796282        2.7481884035       -2.0467033648
 C        -5.4815174034        2.0267678191       -4.3933458167
 C        -5.9387109872       -4.5422009179       -0.4420817454
 C        -7.1685428940       -5.1169321066       -2.6962177198
 C        -7.7195210682        0.5195672826        2.1168243803
 C        -9.7984484456        0.6957240045        3.7026942899
 C       -14.6198965568        2.7432199231       -0.5219397352
 C       -13.3789564533        3.3408729319       -2.6997927595
 C       -11.4895116984        8.1464784733        3.0765580727
 C       -13.6193729953        8.0937871902        4.4101077859
 C        -9.0026291584       12.4677887127        3.1372260258
 C        -9.0213693161       14.1072601934        1.3228220627
 H        -8.9011950438       12.5041759596       -1.2423034854
 H       -10.4850771519       11.8249812405       -0.7455842976
 H        -9.0778712752       10.8484634253       -1.1070647391
 H       -10.9870085869       10.6359312217        1.9723660613
 H       -11.8625208827       10.9912338928        0.6157570304
 H       -13.9541130948       11.4855817608        1.9109173126
 H       -13.1621555770       11.0948987632        3.3993032421
 H       -11.8197534615        6.4520196326        0.7308899786
 H       -13.1696251506        7.3916041418        0.4590306892
 H       -14.1323181491        5.5430554831       -0.5348381400
 H       -14.1480009333        4.6041145283        0.8919151876
 H       -11.9814693961       -0.0211170610        0.0624002234
 H       -13.4029010517        0.8966605990        0.6393512124
 H       -11.8933828354        0.8900845395        2.3299512633
 H       -11.5006331295        2.5040860790        1.5656895196
 H        -8.7896433821       -1.0990461812        0.1177453514
 H       -10.3206234186       -1.7653668012        0.4956635312
 H        -8.6064667973       -3.9183460632        1.3496984353
 H        -7.3593506589       -2.6440429409        0.6694353545
 H        -8.0201421679       -1.5013278749       -2.3498982065
 H        -7.7076093263       -2.3245265803       -3.9541557621
 H        -6.2800288682       -0.5191898410       -4.6005249164
 H        -5.5060774041       -0.3513535895       -3.0256100174
 H        -8.8038008681        3.9462061029       -5.5762753618
 H        -8.5032946302        2.2267527883       -5.7072570555
 H        -7.0894785175        3.3031580227       -5.7208950425
 H        -5.2118838243        2.1465561700       -1.5716593559
 H        -6.7883862193        2.8538013121       -1.3461420297
 H        -5.6406180195        3.7689967867       -2.3420043080
 H        -5.3157981417        3.1409906953       -4.6162551604
 H        -5.8369377572        1.5749875866       -5.3887829930
 H        -4.6770479886        1.5945937358       -3.9873478145
 H        -6.2321255412       -5.3168382754        0.1911719772
 H        -5.4956045037       -3.7737343748        0.1360136279
 H        -5.0559724139       -4.8077207553       -0.9792393828
 H        -7.9341659859       -4.9239814042       -3.4772676398
 H        -7.3688534308       -6.1829864682       -2.2766749442
 H        -6.2561859053       -5.0869075602       -3.2068901736
 H        -7.0640691684        1.2789200360        2.5501146499
 H        -7.5265519196        0.6118080519        1.0593329616
 H        -7.2173329447       -0.3592114840        2.4733447784
 H        -9.3872248508        1.6497936156        4.0829154341
 H        -9.5876461336       -0.0779041532        4.3786092849
 H       -10.9176977686        0.6841933772        3.7807195819
 H       -14.6730652698        2.7709801035        0.5584392514
 H       -14.7388873093        1.6688419292       -0.7520964386
 H       -15.4533685315        3.3185840481       -0.9656489677
 H       -12.3546326003        3.1364828575       -3.1941703701
 H       -13.6011273554        4.3686624510       -2.7237554906
 H       -14.2022363208        2.7985689187       -3.0645638895
 H       -10.9813001711        7.2628094346        3.4628755355
 H       -11.0437773310        8.7921363418        3.7921294973
 H       -11.0768637586        8.3656765084        2.0823686999
 H       -14.6877999217        7.6697418150        4.2840868415
 H       -13.7147444115        9.0663191460        4.6346553500
 H       -13.0377480440        7.6043748940        5.1845681780
 H        -7.9803361602       12.6767654407        3.1275107089
 H        -8.8349072275       11.3432302948        3.4218708606
 H        -9.4009258995       12.8860307028        3.9947731197
 H        -7.8825922804       14.3178993274        1.4344868891
 H        -9.3410699781       14.9172003764        1.9180362373
 H        -9.2989907580       14.2557045109        0.2522443726
 Na       -9.7054387819        2.5927671005       -1.7453171326
