117

 C        -9.0279006454       11.8758592445       -0.9117714670
 C        -8.7257778523       11.8168868685        0.5706576395
 O        -7.9242777296       10.9535879468        0.9789892971
 C        -9.5330508159       12.7374821572        1.6336576563
 C       -10.9875838382       12.5394240791        1.7237183126
 O       -11.7346024379       13.4950567489        1.4554189428
 C       -11.4624745238       11.0809548244        1.8580212142
 C       -12.8581183875       10.7703369186        2.4909247178
 C       -13.2546790118        9.3703409549        1.8899343609
 O       -13.4981145319        9.1436272348        0.6956613775
 C       -12.9945798942        8.0674371553        2.7116228785
 C       -13.2931327833        6.7151216856        2.0230513750
 O       -14.1253835100        6.0011016972        2.5283508143
 C       -12.5712287140        6.2576896337        0.7941580471
 C       -13.4240373324        5.2164094699        0.1023038667
 C       -12.5443252968        3.9852684864       -0.4813844006
 O       -11.3253202455        4.1112586653       -0.6466757729
 C       -13.3675092701        2.8091301618       -1.1083656943
 C       -12.5512220125        1.4759787918       -0.9052982391
 O       -11.8177375955        1.0128649860       -1.7570006714
 C       -12.5893206779        0.8382570045        0.5753375039
 C       -11.5042152129        1.6673061944        1.4331248636
 C       -10.0683076703        1.0315009090        1.2466471779
 O        -9.5244446363        1.2233479016        0.1611336860
 C        -9.1872285454        0.4082866895        2.3229658310
 C        -9.2894005131       -1.1940584333        2.2584397748
 O        -9.2761278474       -1.8969319378        3.2259932854
 C        -9.6563229051       -1.9379284176        0.9967651900
 C        -8.5735750520       -3.0594628398        0.8211006419
 C        -8.4824875044       -3.4758165447       -0.7466789871
 O        -9.4529094878       -3.5385162141       -1.4983155296
 C        -7.0672743934       -3.9187002369       -1.2478112998
 C        -6.3137948156       -2.6678807190       -2.0056295083
 O        -5.1060933664       -2.4197546869       -2.2311351109
 C        -7.3825170286       -1.7737231429       -2.6189404473
 C        -6.8214112282       -0.6125029253       -3.3665112493
 C        -7.3845612803        0.7721511634       -2.9215510127
 O        -8.4172721338        0.9424993427       -2.3980291174
 C        -6.5566026432        2.0558718999       -3.4581824217
 C        -7.5795336419        3.1468321148       -3.7525726756
 O        -8.1462293470        3.7512712807       -2.8379354129
 C        -8.0776326931        3.4098196118       -5.1801407627
 C        -5.7998184897        2.4804428652       -2.1929185704
 C        -5.4645315525        1.8306938761       -4.5655549032
 C        -6.0492990527       -4.5884884783       -0.3741101323
 C        -7.2280728894       -4.8334116428       -2.5695105733
 C        -7.7642131073        0.9502552754        2.3039712406
 C        -9.5741425448        0.9845332700        3.7956378832
 C       -14.8718900670        2.7125037011       -0.6149248693
 C       -13.4050627446        3.2873076009       -2.5645432576
 C       -11.4288637075        7.9879727825        2.9606414989
 C       -13.6875310435        8.1961341393        4.1631525810
 C        -9.0145359781       12.3532346977        3.0264572383
 C        -9.1308049342       14.1249964830        1.2109167268
 H        -8.2203092386       12.3912570442       -1.5033042672
 H       -10.0016377237       12.4799211228       -1.0195565372
 H        -9.1562553910       10.9042097434       -1.4985797138
 H       -10.5744629741       10.4709802391        2.1489534301
 H       -11.5531305966       10.8955456575        0.7659522662
 H       -13.5855150822       11.4983010937        2.2330521725
 H       -12.9149253913       10.8004152632        3.5877131626
 H       -11.5733388568        5.8819910654        1.0942523084
 H       -12.1940826071        7.1151175362        0.2769110364
 H       -14.0097558152        5.6585570849       -0.6906251217
 H       -14.0782435075        4.6701659770        0.8416661891
 H       -12.3267601430       -0.2269751048        0.6210766892
 H       -13.5433600676        0.9996919027        1.1023673214
 H       -11.6760020843        1.7171710488        2.5736504222
 H       -11.2957948768        2.6371866637        0.9523190618
 H        -9.6874417139       -1.2057738202        0.2024851630
 H       -10.6120011453       -2.3756881383        1.0578457745
 H        -9.0586141950       -3.8194363456        1.4018338259
 H        -7.5555099628       -2.7417126587        1.1411792225
 H        -7.9515716157       -1.5441989543       -1.7710296884
 H        -7.9440191053       -2.5521304057       -3.1258298774
 H        -6.7972569761       -0.6967564828       -4.4547090779
 H        -5.6513360267       -0.5246564663       -3.2124469529
 H        -8.4500414484        4.4192756900       -5.1580200718
 H        -8.9474313662        2.8195676285       -5.4244027470
 H        -7.2797043398        3.2977955198       -5.9732536320
 H        -4.8288367755        1.9268445343       -2.2287632252
 H        -6.2575219076        2.2573319935       -1.2829155195
 H        -5.7094441256        3.4906832123       -2.3184822413
 H        -4.6711893323        2.5627329352       -4.6358117170
 H        -6.1640181989        1.8013546315       -5.4195756487
 H        -5.0463789380        0.7565085851       -4.4692106175
 H        -6.4119918981       -4.5666027695        0.7282927886
 H        -5.1443573564       -3.9751744660       -0.4357561207
 H        -5.7546038732       -5.6272197519       -0.4567617076
 H        -8.1364269909       -4.6291006251       -3.1314184496
 H        -7.3360468990       -5.8163532752       -2.3400333024
 H        -6.3385352597       -4.7263875325       -3.2645644256
 H        -7.5992728311        1.6003570198        3.1896522669
 H        -7.5812359819        1.7074044221        1.5564748784
 H        -6.8862894641        0.3030050586        2.3946187848
 H        -9.8255536558        2.0264756309        3.8231062282
 H        -8.6364783438        0.9008137881        4.4199007261
 H       -10.3338454621        0.4679485750        4.3130535667
 H       -14.9070181051        2.3739869241        0.4546167798
 H       -15.5481771914        2.0649394851       -1.1693620424
 H       -15.2368039414        3.7384912799       -0.8306588212
 H       -12.4036382982        3.2293600916       -2.8416293197
 H       -13.9465383457        4.2302691899       -2.7217203770
 H       -13.9620467987        2.4358658921       -3.1057571764
 H       -11.0558085887        7.1077360590        3.4489429828
 H       -11.0117774031        8.6300485552        3.7092950172
 H       -10.8240320370        8.0916194552        2.0230778763
 H       -14.7655358740        8.1730113504        3.9745709530
 H       -13.1872409887        9.0125267824        4.8439340790
 H       -13.3939595597        7.2754295594        4.6360154663
 H        -7.9650538864       11.9684649800        3.3075168333
 H        -9.6387881206       11.5755730000        3.3444589716
 H        -9.2945556168       13.1165709949        3.8023179568
 H        -8.1566145755       14.3594058739        1.3492374995
 H        -9.6293364860       14.9883700224        1.7176412850
 H        -9.3195069683       14.1852609406        0.1486400639
 Na       -9.9551590970        2.6141686382       -1.5512336520
