117

 C        -8.9530940320       11.9722460035       -0.9168622812
 C        -8.6028979272       11.8180324390        0.5904892362
 O        -7.7881646669       10.9793517024        0.9041916948
 C        -9.4030351761       12.7530246142        1.5994244524
 C       -10.9784313995       12.4846281360        1.4314759257
 O       -11.8342817260       13.3117359667        1.3774609072
 C       -11.3405351482       10.9408772976        1.7102264372
 C       -12.6757750518       10.6902109108        2.3097994659
 C       -13.0583655090        9.3071986082        1.7779573940
 O       -13.5781777114        9.2988601169        0.7304280260
 C       -12.8040567351        7.9905458113        2.7388925633
 C       -13.2786968660        6.8019369512        1.9985423734
 O       -14.2361124192        6.1298497268        2.3914105774
 C       -12.4219568405        6.2171684852        0.7011013483
 C       -13.2799683996        5.2032163198        0.0577695816
 C       -12.6249486218        3.9944036825       -0.5617010307
 O       -11.4150542584        4.0026124979       -0.7546181710
 C       -13.4292645425        2.7694481476       -1.1015002593
 C       -12.6187952595        1.4628110744       -0.7454351787
 O       -11.9336200976        0.9720417126       -1.5924021810
 C       -12.5589051825        0.8604646286        0.6012831812
 C       -11.5384881781        1.5873176952        1.5241130480
 C       -10.0087466030        1.1514841493        1.3534861989
 O        -9.4770269945        1.2755406540        0.2132033179
 C        -9.1591163676        0.5316420385        2.4313464099
 C        -9.3775503671       -1.1704083430        2.4133089722
 O        -9.3159498967       -1.7334381391        3.4586646340
 C        -9.6893335582       -1.8740495938        1.0092888201
 C        -8.5820293354       -3.0670200492        0.7598546576
 C        -8.4782678871       -3.5989068376       -0.6468389804
 O        -9.4479579708       -3.5142024481       -1.3666975418
 C        -7.0256650045       -3.8894107118       -1.2413790523
 C        -6.4746419334       -2.6154781192       -1.9307291523
 O        -5.2866116084       -2.5811600116       -2.0890466551
 C        -7.5418523572       -1.5199345397       -2.4963768390
 C        -6.9121635535       -0.5508363664       -3.3830833616
 C        -7.4502172878        0.8678891337       -3.0975835807
 O        -8.3476275198        1.0196660061       -2.2542655986
 C        -6.5487202952        2.0129544825       -3.5309067855
 C        -7.6540135092        3.1596706235       -3.7555032667
 O        -8.0065544477        3.7384676097       -2.7093704437
 C        -8.0401630268        3.5686571245       -5.1165839271
 C        -5.6496219832        2.3566598004       -2.1739074098
 C        -5.5477839897        1.8994582442       -4.6819952355
 C        -6.0986649082       -4.5851361855       -0.2094701390
 C        -7.3468785489       -4.8651796997       -2.5104757453
 C        -7.6771136200        1.0028030152        2.0876449258
 C        -9.7555060157        0.7961941755        3.8712998434
 C       -14.9237927850        2.6580618106       -0.7050520424
 C       -13.4232681845        3.0087505457       -2.6754059534
 C       -11.2966633167        7.8875997922        3.0386192929
 C       -13.7432268386        8.2203749308        3.9439261322
 C        -8.8696527605       12.3842249576        3.0161349052
 C        -9.1713942030       14.2811418005        1.2119652836
 H        -8.0451280700       12.3911855068       -1.3387756078
 H        -9.7062525110       12.7631186813       -1.0832219356
 H        -9.2249399645       11.1557888827       -1.5685089385
 H       -10.5969289933       10.5567895078        2.3360952649
 H       -11.2039497336       10.4773267528        0.6857657794
 H       -13.5252934056       11.3839660436        2.2030890323
 H       -12.4882711413       10.6891245109        3.3989546112
 H       -11.4200242170        6.0619588051        1.0392196444
 H       -12.2023324908        7.0629516487       -0.0031594832
 H       -13.7270905979        5.7239739805       -0.8691285653
 H       -14.0836799128        4.7505531148        0.6888014378
 H       -12.2748059918       -0.2375651864        0.5540506114
 H       -13.4555442293        0.9246700205        1.1481762063
 H       -11.6809021429        1.2659942213        2.5415789687
 H       -11.4997864468        2.7128875277        1.3837709590
 H        -9.5292932053       -1.0252439328        0.3168449911
 H       -10.7419290718       -2.2220382370        0.9061543644
 H        -8.7531664903       -3.7944551552        1.5483376453
 H        -7.6008834514       -2.6110135261        0.8376455025
 H        -7.9782554792       -1.1423025231       -1.5850335989
 H        -8.3394640113       -2.2780361821       -2.9046015605
 H        -7.1097733341       -0.8249763475       -4.4386849570
 H        -5.7799502838       -0.5343556450       -3.4610214242
 H        -8.4118152115        4.5835358189       -5.1832106999
 H        -8.8527411747        2.8723408455       -5.4166405021
 H        -7.1676339925        3.4136554769       -5.7749815492
 H        -4.9443775986        1.5205603236       -2.0835669114
 H        -6.3552849770        2.2394421912       -1.2774535164
 H        -5.2292354388        3.3845387236       -2.2454577633
 H        -5.1396917261        2.8966317652       -4.7979438331
 H        -6.1121849840        1.4771541631       -5.6131871487
 H        -4.7235430985        1.3410078126       -4.4875653583
 H        -6.2037385986       -4.1430357027        0.8489328251
 H        -4.9901798671       -4.5157978798       -0.4947359053
 H        -6.3633771925       -5.6394294732        0.0179428922
 H        -8.2643216447       -4.5951743469       -3.0496105346
 H        -7.6615966781       -5.8439531851       -2.0798622865
 H        -6.5353395634       -5.0626489415       -3.1610469664
 H        -7.2318294223        1.8244094767        2.7618982876
 H        -7.5740572757        1.4709951694        1.1234695266
 H        -6.9631922087        0.2046840899        2.2307885341
 H       -10.0143466610        1.8904193501        3.9467464047
 H        -9.0701919358        0.6433433824        4.6670697117
 H       -10.7459610653        0.2950094487        3.9771555379
 H       -14.8907267752        2.2757894992        0.3156803463
 H       -15.4434423914        1.9127755133       -1.3105770510
 H       -15.5419656298        3.5679595388       -0.9515803063
 H       -12.3350824249        3.2342614293       -3.0673221694
 H       -14.1373741451        3.7635449890       -2.7565112101
 H       -13.8267977549        2.1147192111       -3.2236414483
 H       -10.9507531890        7.1547354146        3.7460450993
 H       -10.7222335262        8.6666498607        3.3731299739
 H       -10.8580450274        7.5939148305        2.0316857385
 H       -14.8183581319        8.4838749538        3.4521146968
 H       -13.2796622759        8.8787938507        4.6060162896
 H       -13.8580860561        7.2223588206        4.4653243094
 H        -7.8746308413       11.9571871377        3.0404439201
 H        -9.5811361040       11.6304546372        3.6021743686
 H        -8.8142955777       13.2228913882        3.6279420417
 H        -8.1732317934       14.7367208248        1.1468682241
 H        -9.7060334054       14.9071099904        1.8349176932
 H        -9.6187390874       14.3811086211        0.2255049251
 Na       -9.9951194820        2.5592470349       -1.5619674543
