117

 C       -13.3200948960        4.4548067997       -6.5000021539
 C       -12.1688356872        4.4245754570       -7.5709058459
 O       -11.6276048063        5.4638484670       -7.8994230862
 C       -11.6960610133        2.9974796244       -8.1581175077
 C       -10.4184020955        2.5999880617       -7.4467025517
 O       -10.4867639561        1.6761256273       -6.6796981666
 C        -9.1579624618        3.5826153712       -7.3726109184
 C        -8.2607603945        3.1041704502       -6.2670569325
 C        -8.8796041407        3.5490775072       -4.9291255466
 O        -9.6999244979        4.4383298274       -4.9333323332
 C        -8.4098411717        2.7792418676       -3.5911997161
 C        -7.8313836465        3.8570559469       -2.6910174930
 O        -6.6697171162        4.1284666633       -2.5495465364
 C        -8.9004396900        4.8576102147       -2.0164063843
 C        -8.1067990615        6.0758650507       -1.3623273030
 C        -7.6441688345        5.7377059611        0.0594540122
 O        -7.8649734207        4.6491760833        0.5362713386
 C        -6.8259692804        6.7898353149        0.8831968192
 C        -7.7457991263        7.3775621413        1.9765032504
 O        -8.9207272423        7.5087004261        1.7062685940
 C        -7.2258536700        7.6979932652        3.3964743138
 C        -8.3236589820        7.7330231453        4.5339217571
 C        -9.1102931295        6.3566756683        4.4779508162
 O        -8.4077866810        5.3977988985        4.7504779801
 C       -10.6821742176        6.2656900521        4.5428702250
 C       -11.1520900050        4.6929361203        4.4055641667
 O       -10.4859248013        3.8329534384        3.8841619409
 C       -12.4477186186        4.3031052028        5.2121587866
 C       -12.8581883079        2.8368067267        4.8089796878
 C       -13.2577624388        2.9008594809        3.3433787160
 O       -13.3594409592        3.9590572178        2.7610505824
 C       -13.6948205810        1.5058794862        2.6033754379
 C       -12.3323232935        0.6868448345        2.6130871334
 O       -11.8087422017        0.4831105587        3.7582640205
 C       -11.7056991505        0.0048693985        1.2869668480
 C       -10.2068087591       -0.3917199420        1.6400110696
 C        -9.3241595889        0.8100202154        1.6949304598
 O        -9.6741137082        1.9814983822        1.5259629671
 C        -7.7760943244        0.6633398189        2.0336197768
 C        -7.5551228776        1.1548910740        3.5788980625
 O        -7.3948067217        2.3476149374        3.7311325418
 C        -7.2025242599        0.0619174113        4.5953326635
 C        -7.3568433314       -0.8091032676        1.8483680345
 C        -6.8178811544        1.4942548371        1.0710879320
 C       -14.6676125207        0.6374988858        3.5251903101
 C       -14.2270730412        1.8710807080        1.1908781387
 C       -10.8935582861        6.7829943625        5.9659821309
 C       -11.4518119919        7.2478130294        3.5701833654
 C        -5.6352832199        5.9657556822        1.5629352872
 C        -6.3597879066        7.9250806385       -0.0472442609
 C        -9.6488529419        2.0210239630       -2.9632201222
 C        -7.3727733995        1.5598280101       -3.7923254534
 C       -12.8301298097        1.9215122282       -7.8708330158
 C       -11.3690760704        3.3095781517       -9.6721060171
 H       -13.4203626875        5.4561057876       -6.2043768008
 H       -13.3004008199        3.7357675242       -5.6282014381
 H       -14.2325827159        4.2922980132       -7.0948394961
 H        -9.3575707262        4.6551293440       -7.4966208868
 H        -8.6089884991        3.2717054121       -8.3009868507
 H        -7.2460159032        3.4192728150       -6.3631613145
 H        -8.2065639079        2.0152163802       -6.1837081561
 H        -9.6936550424        4.4834752737       -1.3547755681
 H        -9.5107320922        5.3893898596       -2.8493859267
 H        -8.6549144995        7.0498566152       -1.5044329481
 H        -7.2110386544        6.2069407930       -1.9716247952
 H        -6.5489888653        8.6324557616        3.4013612660
 H        -6.5438129762        6.8765369033        3.6689084770
 H        -8.9961733673        8.6148189081        4.5089054795
 H        -7.8208359862        7.7527004004        5.4918702864
 H       -13.2882136654        5.0002615007        5.0270410639
 H       -12.1901630310        4.3557470162        6.2587266442
 H       -13.6642939255        2.3700048723        5.4417637448
 H       -11.9977925024        2.1798721566        5.1181754512
 H       -11.7619004536        0.6846488957        0.3875452334
 H       -12.2472486543       -0.9377225841        1.1713431495
 H        -9.7805257130       -1.0268858197        0.9028809436
 H       -10.2680783995       -0.8762514731        2.5492945478
 H        -7.4057587009        0.4746527575        5.5716522793
 H        -6.1860066518       -0.2006444812        4.5704169459
 H        -7.6828969920       -0.8628464145        4.3105182393
 H        -7.3807845611       -1.1330627969        0.8165037589
 H        -8.0865088020       -1.5320497279        2.2929481099
 H        -6.4981314622       -0.9861741736        2.3699747299
 H        -7.0327199245        2.6156254073        1.0975685123
 H        -6.9330282829        1.1769141874        0.0589627298
 H        -5.7864756567        1.4236630208        1.4187294083
 H       -14.2094148583       -0.0833668322        4.2070704186
 H       -15.2073270370        0.1136196368        2.7931954784
 H       -15.2665413304        1.2383779983        4.1522388550
 H       -15.2827341201        1.5839517528        1.0671757504
 H       -13.6361305730        1.3618321516        0.5524334501
 H       -14.3469949515        2.9316574598        1.0131822456
 H       -10.5172120751        7.7862168588        6.1547499941
 H       -10.3408470981        6.0664032528        6.6237133727
 H       -11.9282008080        6.8565121743        6.0796786088
 H       -11.4692221514        6.7663071640        2.5774761628
 H       -10.9267653989        8.1309552820        3.3934155806
 H       -12.5018214600        7.2693000849        3.8511822338
 H        -5.0591804755        6.4436011944        2.3002253052
 H        -5.2322244568        5.2836590046        0.8021318101
 H        -6.1318837510        5.1529119919        2.2301681749
 H        -5.9862742146        7.5737824980       -0.9952120652
 H        -5.6077732076        8.5820786441        0.3911756284
 H        -7.2868699609        8.6258524227       -0.1801440106
 H       -10.1483701617        1.3389474444       -3.6690160043
 H       -10.4351120757        2.7592030183       -2.6738643081
 H        -9.3849010014        1.3995906207       -2.1544142919
 H        -7.7252482140        0.7697962760       -4.5053030932
 H        -7.2682764989        1.0405337348       -2.8013221890
 H        -6.3507421451        1.8586969677       -4.1077666604
 H       -12.8910242851        1.6755823562       -6.7946778485
 H       -12.8845754939        0.9455446517       -8.4072208006
 H       -13.8636208278        2.3530533863       -8.0623956127
 H       -10.8616892373        4.3272870988       -9.7181598085
 H       -12.3789332056        3.4275087961      -10.0956781699
 H       -10.9121562731        2.3887621647      -10.0915392805
 Na       -8.4288310458        4.0333749272        2.4691915753
