117

 C        -8.0161096102       12.7139767383       -1.3339964053
 C        -7.9938369613       12.3998274827        0.1683071056
 O        -7.2842994071       11.4512983254        0.4723007691
 C        -8.9737078005       13.0430844169        1.2774610570
 C       -10.4797003843       12.3263976909        1.2084432705
 O       -11.4469639256       13.0134461165        0.8955529503
 C       -10.6247499553       10.6781154143        1.3297628869
 C       -12.0542040679       10.3975356802        1.7904193837
 C       -12.8072778498        9.0756334286        1.4263656641
 O       -13.2158108921        8.9544359004        0.2490170632
 C       -12.8170925729        7.8732087838        2.3640791979
 C       -13.4928599580        6.6287024863        1.6354343947
 O       -14.5225601826        6.1442016138        1.9613767960
 C       -12.6231624827        5.8687014384        0.5207937000
 C       -13.5652461113        5.1021108248       -0.4009393218
 C       -12.7353762220        3.9523847290       -0.9278410876
 O       -11.6552820037        4.0772413540       -1.4412083641
 C       -13.3675377910        2.5053868609       -1.0858502397
 C       -12.4778892949        1.3979053297       -0.4602843634
 O       -11.5191772432        0.9606275632       -1.1444533290
 C       -12.7421139364        0.7759970956        0.9326110211
 C       -11.8534674215        1.3106825875        2.0669526353
 C       -10.2553068093        1.3554814889        1.7094986650
 O        -9.7856255969        1.7998228560        0.7225554549
 C        -9.3700654966        0.6403032506        2.7612927211
 C        -9.7510446401       -0.9001677659        2.7351083560
 O        -9.8129631139       -1.4830980673        3.8026360770
 C        -9.6709126567       -1.6442668722        1.2950533722
 C        -8.4477930333       -2.5512405716        1.1029926593
 C        -8.7097304334       -3.3632739471       -0.1337305477
 O        -9.8535576095       -3.7438030362       -0.3174618258
 C        -7.4807506022       -3.9925368553       -0.9948696453
 C        -6.8003419235       -2.7758408295       -1.7202083888
 O        -5.5971324023       -2.6507787035       -1.7211920496
 C        -7.5283963386       -1.8971413875       -2.6061531307
 C        -6.7878168703       -0.5787710887       -2.8785216143
 C        -7.4602508430        0.7884842793       -3.0490082741
 O        -8.6297961137        0.9426537829       -2.7897518545
 C        -6.6915776232        2.0440448504       -3.5653680484
 C        -7.5556611549        3.3142699928       -3.4619657577
 O        -8.1858270295        3.6199427026       -2.5122802777
 C        -7.5523345427        4.4864400724       -4.6001567948
 C        -5.4291525032        2.2625971604       -2.6509057861
 C        -6.2780152154        1.7456553098       -4.9469966817
 C        -6.4307346524       -4.7908732466       -0.0903436909
 C        -8.0769077014       -4.8565787470       -2.0998158633
 C        -7.8911341427        0.9997312882        2.4829110526
 C        -9.7304804920        1.0468891674        4.2394397546
 C       -14.8325793843        2.4121150040       -0.6952216849
 C       -13.2971885418        2.2859404018       -2.6221842661
 C       -11.4316919270        7.2576766630        2.8482229600
 C       -13.6762025483        8.2106764227        3.6617489440
 C        -8.3767168098       12.7971944350        2.6931155432
 C        -9.1030433194       14.5097845333        0.9823904992
 H        -7.0208881742       13.0491296012       -1.6641751790
 H        -8.5869988751       13.5311822494       -1.6857184001
 H        -8.3659295298       11.8558484028       -1.9330145778
 H        -9.9612815614       10.2282889895        2.1142511682
 H       -10.3819313359       10.3932946344        0.3219880262
 H       -12.8322933399       11.1460956037        1.4853770792
 H       -11.9751538628       10.4327110277        2.9031388063
 H       -11.9422815308        5.3251682724        1.2134101518
 H       -11.9657284804        6.5551406765       -0.0314241151
 H       -13.8402574222        5.6855842613       -1.3248831663
 H       -14.3641304444        4.5295788221        0.0835384243
 H       -12.5706419123       -0.2901699817        0.8474322349
 H       -13.7940966309        0.7828601968        1.3477390129
 H       -11.9776526425        0.8589388610        3.0523325880
 H       -12.0350297770        2.3521028004        2.2789363684
 H        -9.6430183528       -0.8138561290        0.5575505415
 H       -10.5767063888       -2.2722470835        1.0932125978
 H        -8.1009358614       -3.2683864360        1.8738701401
 H        -7.5219683826       -2.0419644522        0.9855294897
 H        -8.6849346728       -1.8487544134       -2.3330203095
 H        -7.4432389404       -2.3853442251       -3.5281235353
 H        -5.9311020787       -0.8005519090       -3.6032129806
 H        -6.0958434506       -0.3783219136       -2.0731629608
 H        -8.6057808000        4.4358480716       -4.9787293285
 H        -6.8524962643        4.5161466203       -5.4487493202
 H        -7.4842219060        5.4113153362       -4.0448552682
 H        -4.9180775745        1.2635007329       -2.5334271757
 H        -5.7924757984        2.8197190502       -1.7588501219
 H        -4.6042044380        2.8992878184       -3.1256771922
 H        -5.3259838974        2.2644843661       -5.0824536494
 H        -7.0476862296        1.8295062587       -5.5922608804
 H        -6.0211082363        0.6709176069       -5.2936674525
 H        -5.7308626261       -5.2681032778       -0.8251332526
 H        -6.7281211017       -5.6450552603        0.6018745060
 H        -5.9272336449       -3.9326246100        0.4998854111
 H        -8.9127287564       -4.3741043327       -2.5488806893
 H        -8.4578252045       -5.7573768396       -1.6297681496
 H        -7.3541003055       -5.3345433307       -2.8087959927
 H        -7.8111631446        1.9675501404        2.0399761230
 H        -7.4122584237        0.2254568964        1.7591556649
 H        -7.2587163509        0.8380038658        3.3945347843
 H        -9.2425682717        2.0158951755        4.3462073922
 H        -9.2549140103        0.4451580670        5.0532456075
 H       -10.7809762104        1.1261047005        4.5326474612
 H       -14.9851602839        2.5044008099        0.3895043732
 H       -15.1597273572        1.4708268648       -1.2350240658
 H       -15.4183542076        3.2000779937       -1.1750012863
 H       -12.2960725615        2.0591527768       -2.8483000155
 H       -13.5156214320        3.3899079709       -2.9994081857
 H       -13.8674502535        1.4906822023       -3.1104569734
 H       -11.7604683628        6.4230306316        3.4299948511
 H       -10.8905920366        8.0111829552        3.5223903501
 H       -10.6307133516        6.9350488721        2.3550046528
 H       -14.6758607237        8.0527934423        3.4051397988
 H       -13.3966923327        9.3462190205        3.8628993869
 H       -13.4266843148        7.5422211599        4.5017857824
 H        -7.5153424850       12.1140580666        2.6359112940
 H        -9.0779541872       12.4144488246        3.3318770080
 H        -7.8661614463       13.7434746472        3.1511395062
 H        -8.2382440664       15.1186548376        0.9868757718
 H        -9.8844465919       14.8468326566        1.6885516498
 H        -9.6552848912       14.7435449398        0.1562283473
 Na      -10.0125084738        2.4880362808       -1.5883545004
