117

 C        -7.7966625402       12.9153877827       -1.3600618970
 C        -7.9340277786       12.3877515368        0.0402364364
 O        -7.1132955181       11.5591027529        0.4552706521
 C        -9.0159966034       12.9861371416        1.1229271617
 C       -10.3933370654       12.2211591701        1.0824976744
 O       -11.3375700518       12.9581168952        0.8519681332
 C       -10.6897874671       10.7943607352        1.3913534675
 C       -12.1114615680       10.4154503674        1.9789828975
 C       -12.5738357235        9.0876596587        1.2002987582
 O       -12.9896365623        8.9540288767        0.0535088147
 C       -12.7808802331        7.7662304443        2.3083598533
 C       -13.4697932395        6.5898276611        1.5900326434
 O       -14.5514899510        6.1046125464        1.9318091235
 C       -12.5990437659        5.8313742555        0.4829792682
 C       -13.7001852158        5.0751592804       -0.3583340267
 C       -12.8197867423        3.9079517852       -1.0186163242
 O       -11.7224293994        4.2366596658       -1.4775219035
 C       -13.3442101638        2.4442920601       -1.1096635217
 C       -12.4540158218        1.3434289836       -0.3862187631
 O       -11.4823685552        0.8854612220       -1.0428941735
 C       -12.7330646083        0.7671296021        0.9381350321
 C       -11.8639669684        1.3164214602        2.0300615813
 C       -10.3726586424        1.4694240539        1.7572235514
 O        -9.9311636487        1.9727326711        0.7513570184
 C        -9.3733516180        0.8311691929        2.8119897643
 C        -9.6131509278       -0.7554132667        2.7594440766
 O       -10.0504387588       -1.3289466200        3.7116822000
 C        -9.7104720018       -1.7020454375        1.5051560933
 C        -8.4723069764       -2.4213102457        1.1736588610
 C        -8.7706107123       -3.5134341123        0.0283689164
 O        -9.9251677824       -3.7682109288       -0.1937157007
 C        -7.6055171538       -3.9622622205       -0.9639685232
 C        -6.7344166035       -2.8050162078       -1.7932067446
 O        -5.5228527059       -2.7630700242       -1.4679470100
 C        -7.4955675232       -1.8369314596       -2.7438129466
 C        -6.7101880041       -0.5005658406       -2.7112117802
 C        -7.5835868820        0.7932839420       -2.9840478740
 O        -8.7842710516        0.7974192005       -2.8722251761
 C        -6.7401683313        2.0716101850       -3.5991856607
 C        -7.5356766437        3.3927968973       -3.3874037063
 O        -8.3787613582        3.5393321635       -2.4988369321
 C        -7.3706079952        4.5303232432       -4.4851737045
 C        -5.3918594523        2.0416754199       -2.6987993762
 C        -6.4050707936        1.7686035098       -5.1597422759
 C        -6.6006448793       -4.7978352300       -0.1282081696
 C        -8.1513369403       -4.8942346692       -2.1347215789
 C        -7.9028699694        1.0439399225        2.6512702382
 C        -9.7126126451        1.0737345774        4.3269289140
 C       -14.8602488508        2.3680855274       -0.5531687857
 C       -13.2172921738        2.1407122700       -2.6879234307
 C       -11.4785742274        7.2814050865        2.7994719265
 C       -13.6282176073        8.2150346272        3.4977834608
 C        -8.3220010928       12.6848122666        2.5241611620
 C        -9.1003646096       14.4948298872        0.8832680357
 H        -6.9179979041       13.3809776795       -1.6583034644
 H        -8.5225221369       13.7279254076       -1.4604241485
 H        -8.0519328565       12.2031040235       -2.0681693795
 H        -9.8980757478       10.3145194213        2.0415165617
 H       -10.7038276680       10.3869550665        0.4073407365
 H       -12.9194096609       11.1113540821        1.6369504507
 H       -12.1558569562       10.3044375656        3.0997793151
 H       -11.9313081044        5.2140089227        1.1848256916
 H       -11.9816364428        6.4973270326       -0.1282727096
 H       -14.0455024609        5.7297331333       -1.1130515899
 H       -14.4756961925        4.5705135274        0.2345037522
 H       -12.6270232330       -0.2859648405        0.9859690338
 H       -13.7680613598        0.8730818116        1.3752320840
 H       -11.9204913137        0.6640893624        2.9622076662
 H       -12.1128341100        2.2356975963        2.4366259140
 H       -10.2557595208       -1.0020658435        0.7856101109
 H       -10.4001506353       -2.5342815389        1.8023777668
 H        -8.0986944964       -2.8350838061        2.1057743888
 H        -7.5410936284       -1.8649389140        0.9396575546
 H        -8.5492911713       -1.5984061770       -2.4027118618
 H        -7.5390136027       -2.1087569771       -3.7984333074
 H        -5.8370786199       -0.5063680925       -3.3119434714
 H        -6.1870394039       -0.4035391724       -1.7874201732
 H        -8.1142438829        4.2986752952       -5.2551582670
 H        -6.3557972488        4.5353388446       -4.9356854977
 H        -7.5191151318        5.5806732242       -4.0414600785
 H        -4.6282789651        1.3661022654       -3.2633765999
 H        -5.5745039664        1.9801214077       -1.5908489471
 H        -4.9089592988        3.0255381555       -2.8116240708
 H        -5.5698837045        2.3813428902       -5.5995697235
 H        -7.4222815140        1.6095232747       -5.7735360850
 H        -6.0941010589        0.7601215329       -5.3922502700
 H        -6.2469085741       -5.6956012100       -0.7498640697
 H        -6.9367438326       -5.2047349101        0.8352928515
 H        -5.8173074214       -4.0821868863        0.1273066157
 H        -8.9352187300       -4.3195768685       -2.6937998049
 H        -8.5208881283       -5.8600270068       -1.8695771607
 H        -7.2809537408       -5.1869808416       -2.8342783599
 H        -7.6951473731        2.1404086410        2.7585108203
 H        -7.4352213870        0.5955204035        1.7586669817
 H        -7.4016883047        0.4704498394        3.4630909392
 H        -9.5026632585        2.1176331613        4.6151866310
 H        -9.0775915482        0.4709682097        5.0713866075
 H       -10.7313560578        0.8025296092        4.5798806077
 H       -14.8736145968        2.5514752342        0.5469588392
 H       -15.1977636531        1.3955131243       -0.8797283248
 H       -15.5035587678        3.1659782684       -0.9479654889
 H       -12.1625457031        2.1224861011       -2.9449209671
 H       -13.6241212603        2.9837517337       -3.1784205854
 H       -13.6290919170        1.1345931264       -3.0411270886
 H       -11.5005298212        6.3070506537        3.2341842107
 H       -10.8412228515        7.9190665201        3.3422178849
 H       -10.7761089385        7.1073530661        1.9086583300
 H       -14.7210505565        8.3250041497        3.1833976415
 H       -13.2208070321        9.1357361426        3.7516330841
 H       -13.5094392061        7.5370772013        4.2370368699
 H        -7.7461535705       11.7545428238        2.4697256744
 H        -9.1158493610       12.5540260052        3.2235325004
 H        -7.6582902255       13.3920261999        2.9425578176
 H        -8.1930718120       15.0047131178        0.8195291810
 H        -9.8189865555       14.9039435986        1.6206420540
 H        -9.7530415935       14.7798234945        0.0236905915
 Na       -9.8409785833        2.4649263373       -1.4733412996
