117

 C        -7.6762135496       13.2121719167       -1.4031219354
 C        -7.7494669889       12.4221043796       -0.0433566342
 O        -6.9586831326       11.5322085817        0.1767995289
 C        -8.8963174451       12.8716773658        0.9674680674
 C       -10.3004020095       12.2293872371        0.8815012008
 O       -11.3621177674       12.8220929241        0.6486279200
 C       -10.5406521604       10.7294400531        1.2182072594
 C       -11.9039466207       10.5017014427        1.8089852864
 C       -12.3144655856        9.0402809446        1.1912008335
 O       -12.2747260460        8.7667065096       -0.0062029258
 C       -12.7505422863        7.8695692133        2.1510684664
 C       -13.5018133602        6.6832223732        1.5093114315
 O       -14.5322797746        6.2813179654        1.9472631754
 C       -12.7919343139        5.9269294530        0.2411562611
 C       -13.5267729598        4.8511057526       -0.4470853253
 C       -12.6968816411        3.7225064379       -1.0681785882
 O       -11.5944719138        3.8378286738       -1.4980688652
 C       -13.3735025336        2.2174033133       -1.1535460225
 C       -12.3663325224        1.2836076652       -0.4342157443
 O       -11.4052117107        0.8253759229       -0.9964064781
 C       -12.7200650189        0.7858117977        1.0329958906
 C       -11.9269805394        1.4623365110        2.2145966955
 C       -10.4000905963        1.5236739991        1.9713878181
 O        -9.8816397209        2.3332795980        1.2205288868
 C        -9.5250785862        0.7631898594        3.0180901711
 C        -9.7369789850       -0.8117272361        3.0377659782
 O       -10.4103115425       -1.3455990919        3.8938295669
 C        -9.6914645954       -1.3976182721        1.5777191627
 C        -8.4840626884       -2.2411537084        0.9778252951
 C        -8.8223099412       -3.3555958621       -0.0334056356
 O        -9.9147666524       -3.9076104078       -0.0854876912
 C        -7.7115447833       -3.9318383610       -0.9395135029
 C        -6.7268026990       -2.8506199092       -1.5426807704
 O        -5.6107371521       -2.6420502594       -1.2036660175
 C        -7.4976933454       -1.9194715346       -2.4829627611
 C        -6.8161397279       -0.5249750299       -2.4284438532
 C        -7.5997052427        0.6939010329       -2.9379981243
 O        -8.8022480724        0.6457004900       -3.0299478505
 C        -6.8892116112        1.9691441563       -3.7043847445
 C        -7.5825208585        3.4124645236       -3.3841880267
 O        -8.3707759243        3.5773007314       -2.5272346246
 C        -6.8289460396        4.5815468278       -4.2009857307
 C        -5.4326581645        2.2129651940       -3.0855186369
 C        -6.7956061264        1.6388395149       -5.2596107244
 C        -6.8954629924       -4.9957867588       -0.0234312793
 C        -8.4922064141       -4.7456567226       -2.0838727086
 C        -8.0315836342        1.1143848048        2.5680516997
 C        -9.8125891779        1.5425149763        4.2886363361
 C       -14.8343590738        2.1151542256       -0.6971356501
 C       -13.5145238638        1.7973554431       -2.7009157764
 C       -11.3320557005        7.5404320149        2.6216898183
 C       -13.7522682235        8.3493990039        3.5112701131
 C        -8.4073940274       12.5177615768        2.4279168442
 C        -9.1231236337       14.3830789389        0.8523913829
 H        -6.8762923795       13.9981537263       -1.2156435885
 H        -8.4713938384       13.8432369017       -1.7542854554
 H        -7.1600669760       12.5978987723       -2.2159825515
 H        -9.8035853597       10.3258873445        1.8706582662
 H       -10.5413596335       10.2020672905        0.2164560232
 H       -12.4936413342       11.3775716296        1.5123707287
 H       -11.8264022055       10.3085231900        2.8513733777
 H       -11.9516158266        5.4208553176        0.6550194782
 H       -12.5234792801        6.8019927233       -0.4103507183
 H       -14.2005102605        5.1677832264       -1.2923854262
 H       -14.1378171932        4.2624048651        0.1998293346
 H       -12.6342853123       -0.3375037235        1.1779896142
 H       -13.7263428057        1.0137536342        1.3274744944
 H       -12.0998439882        0.9977787002        3.1666637574
 H       -12.2464444026        2.5510631763        2.4579929870
 H       -10.0523273767       -0.5672921944        1.0296454654
 H       -10.5211904330       -2.0784025953        1.6845298877
 H        -7.8256425194       -2.5975064101        1.8011847570
 H        -7.7035434141       -1.5720006743        0.6130177485
 H        -8.5491153279       -1.6745674579       -2.1888575061
 H        -7.4886055719       -2.1639497203       -3.5330875096
 H        -5.9126449863       -0.3910119946       -3.1128807380
 H        -6.2903214727       -0.4204486722       -1.4468924776
 H        -6.6872398662        4.2135045660       -5.2370534253
 H        -5.8881036375        4.8244987495       -3.7004058142
 H        -7.3816303064        5.4706540184       -4.1380025950
 H        -4.6345978018        2.0201410458       -3.7126940207
 H        -5.4294669810        1.6613846020       -2.2103685139
 H        -5.2297932650        3.1796150562       -2.6705853565
 H        -6.2101587065        2.4719264718       -5.6853210010
 H        -7.6616125483        1.4901980806       -5.7419030870
 H        -6.2460843162        0.6972821426       -5.5433328397
 H        -6.8600002318       -5.9371156879       -0.4118531656
 H        -7.3686114481       -4.9511179586        0.9285933650
 H        -5.9855857120       -4.5031544918        0.2115961356
 H        -8.9947012955       -4.0810490936       -2.7658161549
 H        -9.1804248921       -5.5559699736       -1.7252676581
 H        -7.7414554038       -5.2627500395       -2.6672953005
 H        -7.6309200760        1.6863353820        3.3590261109
 H        -8.0496173759        1.6110345886        1.5781272390
 H        -7.3879741860        0.2918044394        2.3172542995
 H        -9.9866158188        2.5947584732        4.0846374460
 H        -8.9650363293        1.4565825179        4.9053212433
 H       -10.5803102389        1.1281469818        4.9305881780
 H       -15.0014840159        2.5345472718        0.2625746169
 H       -15.1791058293        1.0538698034       -0.6728690405
 H       -15.2829996482        2.8528478004       -1.3226735876
 H       -12.7463799314        2.2113051748       -3.3384733598
 H       -14.5197833175        2.0497979116       -3.2561105375
 H       -13.3892724554        0.7622051005       -2.6462887325
 H       -11.1426230355        6.6525729735        3.2795123754
 H       -10.8739015347        8.4737431989        3.1728947427
 H       -10.6547841827        7.3467633883        1.8699311951
 H       -14.4600471709        8.9933445530        3.1131321438
 H       -13.1363874247        8.9343370283        4.3882020364
 H       -14.1208362866        7.3114049771        3.7591596771
 H        -8.5977313230       11.4741947096        2.7213731971
 H        -8.8359522241       13.2233114932        3.1268941168
 H        -7.2546998480       12.7733644709        2.5669053485
 H        -8.1424509479       14.9232097101        0.6357872966
 H        -9.6801909420       14.8206548181        1.6996080161
 H        -9.7560294549       14.6165018927        0.0054822499
 Na       -9.8963753512        2.3825438342       -1.2988745653
