117

 C       -13.4452154385        4.4893615501       -6.7434862369
 C       -12.2385769329        4.3649375904       -7.6800425570
 O       -11.5296027213        5.2950034941       -8.0337703423
 C       -11.8581761039        3.0090701004       -8.1642995037
 C       -10.5353948981        2.5638407883       -7.3220593122
 O       -10.4949229901        1.5601134706       -6.6597377819
 C        -9.2622730182        3.4597344474       -7.3728654202
 C        -8.2399084870        3.0788157769       -6.2902942316
 C        -8.9530708922        3.3402720595       -4.9398362646
 O        -9.7602817350        4.2423359210       -4.8093185821
 C        -8.4731116166        2.6872051991       -3.5689745370
 C        -7.8891795302        3.9015426066       -2.6249446869
 O        -6.6989818461        3.9961034504       -2.5361039921
 C        -8.8492213630        4.8320001049       -2.0572864425
 C        -8.2477500761        6.0471392417       -1.3623874387
 C        -7.6393213154        5.7709739549        0.0205492372
 O        -7.9443732016        4.7677956957        0.6627086821
 C        -6.8657322666        6.8406110729        0.7708967573
 C        -7.8282387011        7.3456160696        1.9689027918
 O        -9.0178824041        7.3805245363        1.7497556301
 C        -7.2150225379        7.7643906604        3.3247122946
 C        -8.3162606026        7.8649597180        4.3364490254
 C        -9.0477563367        6.4754423178        4.5044422764
 O        -8.3984291753        5.4833094381        4.5969726976
 C       -10.6224913931        6.2894941242        4.5889730277
 C       -11.1319821344        4.7803176404        4.5345288665
 O       -10.5342363642        3.9080059340        3.9040815756
 C       -12.3901994195        4.3169307676        5.2860853570
 C       -12.8551951809        2.9447946148        4.8268036287
 C       -13.3294573345        2.8758365570        3.4080730892
 O       -13.2970285290        3.8696867799        2.7526723574
 C       -13.6187760893        1.4760845748        2.6454663487
 C       -12.2918470403        0.6538484260        2.6804059682
 O       -11.7093692307        0.4718717943        3.7807746965
 C       -11.6286409530        0.0216100084        1.4897359067
 C       -10.0983819160       -0.3183705284        1.6766408776
 C        -9.2113399143        0.9532680308        1.6485090664
 O        -9.7231351295        2.0604233299        1.4110386585
 C        -7.6627907429        0.7099614484        2.0288093044
 C        -7.3445953867        1.1274276711        3.5281438387
 O        -7.3327837582        2.3299387548        3.7989185842
 C        -7.0802119108        0.1232620434        4.5366164433
 C        -7.3225925895       -0.7691227708        1.8063946357
 C        -6.7459283002        1.5485562707        1.2325686620
 C       -14.5956034981        0.6767648107        3.5431640480
 C       -14.2751132456        1.7925723412        1.3543377541
 C       -10.8853368256        6.8738888807        6.0522901382
 C       -11.4178677479        7.2127990088        3.6283022744
 C        -5.6116257150        6.0821134268        1.4349723592
 C        -6.2720779123        7.9849496957       -0.1467782616
 C        -9.6036239730        1.9200884562       -2.9259595884
 C        -7.2720267056        1.6826913290       -3.9035724897
 C       -12.8407031841        1.9273975360       -8.2038593310
 C       -11.4568506504        3.1425765107       -9.7071108355
 H       -13.3589106535        5.4897306844       -6.3380465364
 H       -13.5433794240        3.7133547296       -6.0707551172
 H       -14.3708531667        4.5382619449       -7.3292245807
 H        -9.5848161474        4.4374404928       -7.2501380040
 H        -8.7868651842        3.4654558523       -8.3418048467
 H        -7.3698578101        3.7625406713       -6.3503553481
 H        -7.8486384040        2.0972997005       -6.2228409047
 H        -9.4220169591        4.2888744067       -1.2788449252
 H        -9.6763346728        5.1981202468       -2.7475737650
 H        -9.0670517137        6.8035683613       -1.2361710562
 H        -7.5458845456        6.5421829299       -2.0304539446
 H        -6.7033555334        8.7264980334        3.2896190039
 H        -6.4380547528        7.0137401428        3.6666937082
 H        -9.0408274047        8.6831968061        4.0371946363
 H        -7.8896558696        8.1593900393        5.2832385932
 H       -13.1664037163        4.9747323559        5.0593521442
 H       -12.2572056508        4.3009609705        6.3476175659
 H       -13.5849690545        2.5685599348        5.5681477673
 H       -12.0325771978        2.2127464533        5.0209884074
 H       -11.6954389278        0.6497388838        0.6278509232
 H       -12.1767407648       -0.9113753543        1.3802488745
 H        -9.7855848977       -0.9361842341        0.8056216403
 H        -9.9890635985       -0.8972352496        2.6584589427
 H        -7.2859129146        0.5997845980        5.5151453111
 H        -6.1011966465       -0.2993244686        4.5135018486
 H        -7.6474886349       -0.7244222259        4.2589695306
 H        -7.6036458210       -1.0278042030        0.8520708180
 H        -7.8790616571       -1.4657439274        2.3954293989
 H        -6.2661952935       -0.9632687148        2.1310703889
 H        -7.0474895705        2.5035347652        1.3454258568
 H        -6.7556693924        1.3495838074        0.0940047577
 H        -5.7282954349        1.4431349424        1.6011632011
 H       -14.0985339165        0.2603305687        4.4596495781
 H       -14.9461636097       -0.1227410204        2.9296756798
 H       -15.4191442856        1.3142326790        3.9058275872
 H       -15.3424043669        1.5470136466        1.4337335603
 H       -13.7529179155        1.2142864710        0.5219316039
 H       -14.3819232085        2.8587207374        1.1311704290
 H       -10.3768654261        7.8775801335        6.1671451504
 H       -10.2775249088        6.2370987343        6.6609642070
 H       -11.9680281603        7.0817793570        6.2920280226
 H       -11.4354312067        6.9703830121        2.5645517801
 H       -10.8441341943        8.1731256218        3.6070292028
 H       -12.4746512628        7.2014283850        3.9740945410
 H        -5.0415873128        6.8730492078        1.9480673553
 H        -5.1497425900        5.2965327016        0.8053607899
 H        -5.8759855393        5.4790489526        2.2778375999
 H        -5.6152872867        7.5843532099       -0.9643335748
 H        -5.6503422166        8.7426948375        0.4600557382
 H        -7.1384798478        8.6021973124       -0.5903630172
 H        -9.9522784135        1.0809528717       -3.6112609749
 H       -10.4507167316        2.6067288491       -2.8473357825
 H        -9.4328530124        1.4404493555       -1.9743825913
 H        -7.4554608341        1.0242614461       -4.7682331392
 H        -6.9919203420        1.0512392939       -3.0823554083
 H        -6.3898073215        2.2507474717       -4.1129059121
 H       -13.0341260908        1.6174328429       -7.1944506004
 H       -12.4980270491        1.0372688637       -8.6538354742
 H       -13.8796990013        2.0775134047       -8.6669755066
 H       -10.9399920135        4.0896624973       -9.7992931783
 H       -12.4327342171        3.1884465277      -10.2271856235
 H       -10.9631145808        2.1573537243       -9.9471752657
 Na       -8.6761845120        4.0259309631        2.6857233004
