117

 C        -7.4500268128       13.5629411476       -1.3696237701
 C        -7.6778460504       12.5106718072       -0.3780794056
 O        -7.1377818839       11.4470993017       -0.4633403776
 C        -8.6905128432       13.0151228615        0.8074818418
 C        -9.9175214449       12.2404326137        0.3166490799
 O       -10.9314208871       12.7505912221       -0.0586276145
 C        -9.8244528371       10.6777120474        0.2424602975
 C       -11.0443320570       10.0861283437        0.9437920010
 C       -11.5041357265        8.6644550679        0.5483742093
 O       -11.0520872376        8.0505880655       -0.3409925361
 C       -12.4833469780        7.8818425124        1.5131058769
 C       -13.3780192914        6.6613267168        0.9536912415
 O       -14.4119283111        6.3824319217        1.4442460130
 C       -12.7343148760        5.7782657273       -0.0449256943
 C       -13.6344346685        4.4908413046       -0.1562696350
 C       -12.7749717172        3.3120657056       -0.7369715614
 O       -11.6456449742        3.5391620628       -1.0119062596
 C       -13.4245946755        1.9303862364       -0.8890688393
 C       -12.5863879605        0.9139200439        0.0155057391
 O       -11.6359590970        0.3578119151       -0.4680947729
 C       -12.8793625533        0.8613111352        1.5064846023
 C       -12.1441497299        2.1062089842        2.2756028966
 C       -10.6166704827        2.0399266578        2.0248577399
 O       -10.1465225250        2.2973882219        0.9247860821
 C        -9.7109161650        1.2972427025        3.1317514774
 C        -9.9775289741       -0.3093731743        2.9035375800
 O       -10.4002643124       -0.9151869702        3.8472160340
 C        -9.4806608490       -1.0329073676        1.5258706809
 C        -9.0974692019       -2.4943291776        1.6720107960
 C        -9.5171817865       -3.3536316285        0.3982220563
 O       -10.6531553224       -3.7285688493        0.3864722403
 C        -8.2611932137       -3.8227164219       -0.5054439568
 C        -7.2963577813       -2.6054358221       -0.7866463165
 O        -6.2901549211       -2.5293709874       -0.1887818501
 C        -7.7051142314       -1.5050165432       -1.7817908804
 C        -6.7517933772       -0.4259950560       -2.5048738256
 C        -7.6188262353        0.7875084674       -3.0007430352
 O        -8.7155994106        1.0250630482       -2.6142898759
 C        -6.8473592079        1.9249384243       -3.7188163860
 C        -7.1930729186        3.3277542335       -3.1940885614
 O        -8.1376947208        3.5565121009       -2.4405154607
 C        -6.3752753682        4.5762972923       -3.6805723371
 C        -5.3259305966        1.7293453122       -3.9465248316
 C        -7.4422011069        1.6189510426       -5.1346371895
 C        -7.4620815382       -4.9423879759        0.3680545340
 C        -8.6368007919       -4.4928207987       -1.8589337063
 C        -8.1327058052        1.4089078772        2.8035309983
 C        -9.9822290786        1.6368989299        4.6059591438
 C       -14.9566843357        1.8467201921       -0.5710905767
 C       -13.2303432972        1.4194766763       -2.3613596223
 C       -11.4420370903        7.2877625010        2.3945716389
 C       -13.3846434835        8.8208321134        2.4036378632
 C        -8.1533623259       12.4310867013        2.1261681860
 C        -8.7716408564       14.5491722460        0.9065969016
 H        -7.3440075692       14.6686398675       -1.1269073608
 H        -8.4200932275       13.5787081871       -1.9634745540
 H        -6.6296751411       13.2534136863       -2.1063379302
 H        -8.9538212360       10.0948887870        0.5691514526
 H        -9.8745555530       10.4523101128       -0.8405315002
 H       -11.9252609020       10.6629600262        0.6284391649
 H       -11.0229076114       10.1007716061        2.0436540272
 H       -11.7164946891        5.5330209617        0.2972321508
 H       -12.9484428365        6.3253302198       -0.9357044026
 H       -14.5835552994        4.5926082086       -0.6929780684
 H       -14.0756812032        4.2934015306        0.8995758182
 H       -12.3793749915       -0.0272062405        1.9702880139
 H       -13.8509464237        1.1370480342        1.8313964584
 H       -12.2540956558        2.0737004292        3.3484975984
 H       -12.5307712360        3.0663516315        1.9269441755
 H        -8.7531156606       -0.3580437791        1.0745013127
 H       -10.2315768721       -1.0108217724        0.7780610498
 H        -9.7037065453       -2.7827292070        2.5140535575
 H        -8.0866066589       -2.8204757823        1.8711685713
 H        -8.5250948849       -0.9518282406       -1.3281951531
 H        -8.2692526751       -1.9307712902       -2.7507416325
 H        -6.2406219444       -1.0134344733       -3.2758035313
 H        -5.9786065057       -0.0851374267       -1.7131345207
 H        -5.8335621854        4.8091714949       -2.7881721035
 H        -7.0225444024        5.4117495432       -3.8275104670
 H        -5.7752080356        4.3733623063       -4.5265220255
 H        -4.9314493235        2.6233601906       -4.3029039791
 H        -5.0301578668        1.1257462084       -4.7615076803
 H        -4.7221716880        1.6369202859       -3.0118422258
 H        -7.4801603653        2.4305560187       -5.9020721488
 H        -8.4534128945        1.7062765239       -5.1018411550
 H        -7.0779249294        0.6604696918       -5.5862046447
 H        -6.4298963901       -4.8185303165        0.0983542905
 H        -7.8774430478       -5.8878333781       -0.0314567243
 H        -7.4947880011       -4.7772360539        1.4308663891
 H        -9.5243621145       -4.0547949845       -2.3240670262
 H        -9.0980439781       -5.4239907165       -1.5264697861
 H        -7.8890286924       -4.4786285613       -2.5597679416
 H        -7.9622959653        1.5365510205        1.6871235553
 H        -7.7646841587        0.5747125071        3.3353756505
 H        -7.6844116796        2.2051832119        3.3491129064
 H        -9.2143739684        2.3720095152        4.8429638665
 H        -9.9492647975        0.8141376826        5.2654167580
 H       -10.8930498516        2.2323101201        4.7419241718
 H       -15.1635922514        2.1121359231        0.4715232750
 H       -15.0247702697        0.7767656556       -0.7028895988
 H       -15.5784867908        2.3174684632       -1.3743022654
 H       -12.0974776891        1.3155669770       -2.6657096711
 H       -13.6611076312        2.1677039352       -3.0182322767
 H       -13.7798134696        0.5622651078       -2.6527323403
 H       -11.7345504540        6.5688670677        3.1456210377
 H       -10.9338881062        7.9982875840        2.9991646083
 H       -10.7418916206        6.7064359892        1.7530569472
 H       -13.6506314401        9.5336428557        1.7970728318
 H       -12.6125903186        9.1142433683        3.1859139604
 H       -14.1992197132        8.1980301157        2.8583913878
 H        -7.4618455314       11.6147889312        2.0234557128
 H        -9.0504603551       12.0253118820        2.7767293007
 H        -7.7849469895       13.3001608289        2.6351190568
 H        -7.9456567082       15.2592873085        0.7557152596
 H        -9.1158465017       14.7660619521        1.8436593045
 H        -9.5405596993       14.7762793374        0.1548996786
 Na       -9.9760206849        2.0679011385       -1.4417707850
