117

 C        -7.1155581693       13.7633142709       -1.5837767998
 C        -7.3670114188       12.7470209054       -0.5375508346
 O        -6.6125220741       11.7669071688       -0.6125779599
 C        -8.5181094138       12.8556350389        0.4933955558
 C        -9.9297579498       11.9978471562        0.1178902655
 O       -10.9021134305       12.7270297637        0.0730482525
 C       -10.0082475532       10.5140919529       -0.2237720735
 C       -11.1897133458       10.0936885885        0.6619495584
 C       -11.3325965069        8.5520681983        0.5797224422
 O       -10.7498319469        7.9478104326       -0.3315733753
 C       -12.4243841247        7.9640613406        1.4828527616
 C       -13.2932327210        6.8311944385        0.9791060139
 O       -14.4795586151        6.7104644813        1.2920854174
 C       -12.8142346578        5.8812431638       -0.2073999608
 C       -13.7087730627        4.6124606440       -0.3751804918
 C       -12.9742673576        3.4196909967       -0.9248805552
 O       -11.7789280318        3.4974934694       -1.3107717850
 C       -13.5279171336        1.8722790972       -0.9567776148
 C       -12.6271604734        0.9479976758        0.1107537411
 O       -11.5913060470        0.3693912326       -0.2549669749
 C       -12.8930386668        0.9188615704        1.6002099504
 C       -12.0527730118        2.0056818507        2.2878684148
 C       -10.4291116008        1.8212153861        2.0973237954
 O        -9.9238370025        2.2674161533        1.0689130840
 C        -9.5958277697        1.2773985138        3.2096867360
 C        -9.8349541693       -0.3823250882        3.0965935443
 O       -10.5927575214       -0.8248145638        3.9295216620
 C        -9.2371405070       -1.1222446594        1.8782602539
 C        -9.4817968485       -2.6706015955        1.9180468120
 C        -9.5884362911       -3.2717202799        0.4945713701
 O       -10.6163025529       -3.6493587127        0.0063641443
 C        -8.2402852691       -3.7404314572       -0.2693572847
 C        -7.4500909364       -2.5310567885       -0.6434065309
 O        -6.4277099421       -2.2490101685        0.0256856491
 C        -7.8955360878       -1.5719468209       -1.6352587596
 C        -6.8469642454       -0.6649649561       -2.2654955775
 C        -7.5870227446        0.5511553874       -2.9452273989
 O        -8.8487423165        0.6233727803       -2.9239046311
 C        -6.8704844447        1.7983113252       -3.7264391138
 C        -7.1709410465        3.2628778047       -3.1624513076
 O        -7.9539012172        3.3262846229       -2.2372828003
 C        -6.3461112663        4.4874335839       -3.4743752885
 C        -5.3972472065        1.5024799354       -3.9379984694
 C        -7.5545978799        1.9094709373       -5.0922203766
 C        -7.5329787584       -4.9333749859        0.4169403463
 C        -8.8285281178       -4.3992583078       -1.5988396161
 C        -8.1450222600        1.8718559664        3.0204159298
 C       -10.0456812381        1.8832078220        4.6250832419
 C       -15.0644264616        1.8633200685       -0.5833777550
 C       -13.2326440657        1.3224086045       -2.2800545647
 C       -11.4759581091        7.2758442559        2.6253326430
 C       -13.2583855818        9.0823134312        2.2540414450
 C        -8.1026577109       12.0633625547        1.8072749075
 C        -9.0494238231       14.2446417123        0.7601374192
 H        -6.1676984917       14.1603320348       -1.2356057989
 H        -7.6437165304       14.6524939159       -1.9063301478
 H        -6.8167476660       13.2676359042       -2.4498147567
 H        -9.0294158650       10.0135858652       -0.0307214643
 H       -10.1116635734       10.2595398008       -1.2612391811
 H       -12.0674707529       10.6281382107        0.2252253681
 H       -11.1481837548       10.3860928877        1.7239580679
 H       -11.7934966381        5.5908100129        0.0505415574
 H       -13.0664283941        6.4636575632       -1.1035314828
 H       -14.5746668302        4.7748955828       -1.0561372106
 H       -14.2126944992        4.5019049912        0.5510002647
 H       -12.5008397164        0.0848850913        2.0836881048
 H       -13.9156454113        1.1811989182        1.9882772079
 H       -12.2334623927        2.1187386706        3.4033437173
 H       -12.1734501201        2.9594034483        1.8280683504
 H        -8.2429658187       -0.8141214347        1.4369327604
 H        -9.8748558197       -0.6911046427        1.0209972836
 H       -10.5359035602       -2.7515487172        2.2895834887
 H        -8.7530811410       -3.3047377735        2.4537655727
 H        -8.6475220857       -0.8523241001       -1.2538151211
 H        -8.4584012726       -2.0264802836       -2.2906740969
 H        -6.2329066964       -1.2484558366       -2.9312287742
 H        -6.3164187778       -0.4059682064       -1.4162550523
 H        -6.0125986365        4.9871477701       -2.5426367491
 H        -7.0239380325        5.1654844192       -4.0259753383
 H        -5.5341453104        4.0965746262       -4.1807776180
 H        -4.6304766644        2.2337888770       -4.3676802775
 H        -5.2842758249        0.6631017286       -4.7311374527
 H        -4.9823768229        1.2802396930       -2.9640473051
 H        -7.1628661854        2.4879652437       -5.8855155106
 H        -8.5912631484        2.4930315179       -5.1355798548
 H        -7.6206112774        0.9299398142       -5.4728837067
 H        -6.5841924600       -5.3195481890       -0.0667617088
 H        -8.3209162900       -5.6753577535        0.5673994915
 H        -7.1799586410       -4.3778507735        1.2987671374
 H        -9.4130370776       -3.6808087952       -2.1999737071
 H        -9.6229782643       -5.0842307209       -1.3924068034
 H        -7.8780665067       -4.7751979613       -2.2022571949
 H        -8.2848687625        2.8954217741        3.3337008184
 H        -7.7527552950        1.6099985073        2.0084446726
 H        -7.4736074636        1.4606228883        3.8208463955
 H        -9.6725987551        2.8472180996        4.9419464566
 H        -9.6733506723        1.0690827610        5.3464413368
 H       -11.1123531814        1.9643854140        4.6195215662
 H       -14.9699184336        2.2399697141        0.4330954187
 H       -15.6050325309        0.9103631919       -0.7365962164
 H       -15.5357627720        2.5418234897       -1.2524240978
 H       -12.2543821126        1.5522816503       -2.5815756975
 H       -13.8937674857        1.3590641702       -3.1067585117
 H       -13.1077269411        0.1966382819       -2.1616809231
 H       -12.0216040048        6.8184637475        3.4385213097
 H       -10.7861751870        7.9879910487        3.0992806763
 H       -10.7807815059        6.4568167924        2.2205964790
 H       -13.3778289487        9.8563342053        1.4104561319
 H       -12.8153913423        9.2984129981        3.1468692940
 H       -14.2310134572        8.5684970980        2.2700221242
 H        -8.0550461710       11.0026006993        1.5512866418
 H        -8.8932896241       12.2065671051        2.4894048152
 H        -7.1627339206       12.3780637098        2.1903937315
 H        -8.3655367942       14.7277264764        1.4008497482
 H       -10.0683954883       14.1889627911        1.3244602618
 H        -9.1872886596       14.8524607142       -0.1435522515
 Na      -10.0484872760        2.1230148864       -1.4255407633
