117

 C        -7.0874965442       13.9329285155       -1.7964978089
 C        -7.1728017074       12.7419315548       -0.7558997079
 O        -6.2640643303       11.9486416980       -0.7821835841
 C        -8.4054789604       12.6606660410        0.2984449889
 C        -9.6980024474       12.1208644968       -0.2987440536
 O       -10.7004926368       12.8665961258       -0.4632318485
 C        -9.9157228954       10.6497867644       -0.7132573431
 C       -11.0428734406        9.9581147691        0.2617307169
 C       -11.2558767789        8.3448512417        0.3801290852
 O       -10.6150906636        7.3997387020       -0.1319373463
 C       -12.4050986494        7.8797564182        1.4159634905
 C       -13.3542376687        6.8819837152        0.7842089589
 O       -14.5689684189        6.8644455568        1.0587535284
 C       -12.6788374313        5.8062196330       -0.1143055730
 C       -13.6581137850        4.6574525242       -0.5062756401
 C       -12.9739615725        3.4898631693       -1.0962340754
 O       -11.7995411946        3.5609774957       -1.6054326144
 C       -13.5170387738        1.9798442021       -0.9882387615
 C       -12.4137619872        1.3358391786       -0.0242087448
 O       -11.5006744388        0.6931166191       -0.5291338541
 C       -12.6355592115        1.2742318280        1.4979238876
 C       -11.9001305001        2.2827920797        2.3925154136
 C       -10.3377212281        1.8738659924        2.2426670761
 O        -9.8380570491        1.9773785319        1.0881690367
 C        -9.5356284864        1.2316198796        3.3716374940
 C        -9.7849082358       -0.3852065006        3.2373161567
 O       -10.6398027789       -0.9160738987        3.9021316668
 C        -8.9488809758       -1.0627000289        2.1614575915
 C        -9.5834702492       -2.4487987546        2.0666994080
 C        -9.7749008010       -3.0817434184        0.6306805980
 O       -10.8436158519       -2.9062108785        0.0817350949
 C        -8.4990089375       -3.6603524730        0.0050534149
 C        -7.7194926996       -2.3395719120       -0.3704109059
 O        -6.7246115803       -2.0082513683        0.2676283979
 C        -8.3166848727       -1.5433525655       -1.5511912175
 C        -7.3631308988       -0.4170172137       -2.0635230287
 C        -7.9545208334        0.5294338408       -3.0433119371
 O        -9.1755464219        0.5397251799       -3.1578008237
 C        -7.0739814098        1.6345662581       -3.7905579128
 C        -7.0602453254        2.9266199261       -2.6896801233
 O        -7.8522739876        2.8831551656       -1.7552038217
 C        -6.2457239832        4.1489548577       -2.9152198404
 C        -5.5943982721        1.1234640350       -3.9296445822
 C        -7.5836369257        1.8987258203       -5.1318742641
 C        -7.6309602797       -4.5210266411        1.1070108239
 C        -8.6529821949       -4.4442414121       -1.2650729832
 C        -8.0106654113        1.4562660078        3.1081331878
 C       -10.0737055657        1.6557549513        4.7834488574
 C       -14.9098971121        2.0220928397       -0.4006533006
 C       -13.5351070173        1.3635468676       -2.3291253287
 C       -11.7415603250        7.0315741413        2.4752023174
 C       -13.3735192067        9.0089910925        1.9870063949
 C        -8.0842804573       11.7525229869        1.4853946547
 C        -8.6284399050       14.2023240910        0.7829466059
 H        -6.1670528163       14.2696329836       -2.3134092033
 H        -7.4846924788       14.9235223527       -1.4092472485
 H        -7.9023986315       13.8709159692       -2.5740966239
 H        -9.0132882730       10.1201711517       -0.7691560884
 H       -10.1239820634       10.6421992081       -1.7905340345
 H       -12.0098497935       10.1671308428       -0.2476998896
 H       -11.2708970618       10.4399178138        1.2270390282
 H       -11.7958012108        5.3995532106        0.4354528585
 H       -12.4206988757        6.3452796753       -1.1180068505
 H       -14.5186508439        5.0553457112       -1.1348787691
 H       -14.0338037822        4.2793128068        0.4712978066
 H       -12.4228782648        0.2536410111        1.8946849305
 H       -13.6758567673        1.4133790172        1.7500614462
 H       -12.0398865925        2.3316118450        3.4365540315
 H       -12.0736404257        3.2892917752        1.9876941849
 H        -7.8847258517       -1.1212199968        2.2032953851
 H        -9.0438215882       -0.4614635005        1.3014473795
 H       -10.6226183738       -2.3427882794        2.3062997977
 H        -9.0735704447       -3.1714669076        2.6278325339
 H        -9.3736403366       -1.1907625039       -1.5046523881
 H        -8.4644605793       -2.1650703022       -2.3673125926
 H        -6.5995551199       -1.0708331538       -2.4531501281
 H        -6.9964397741        0.3370977244       -1.3127325099
 H        -6.4123803188        4.7381289717       -2.0587261677
 H        -6.6396635172        4.5340910396       -3.8016198389
 H        -5.2118706342        3.8916542826       -3.0366133867
 H        -4.8789783380        1.7612884110       -4.4945333322
 H        -5.5799037972        0.0224837342       -4.1678020947
 H        -5.2146728726        1.2242393984       -2.9454861339
 H        -7.1580366243        2.7355796790       -5.6291720906
 H        -8.7654336263        1.9580665747       -5.3886304432
 H        -7.3099856337        1.1296296106       -5.8608991816
 H        -7.1046853053       -5.2405265329        0.5104099901
 H        -8.2282969131       -5.1060235720        1.7566070521
 H        -6.9200619662       -3.7938749436        1.5076082133
 H        -9.5377938579       -4.1410814899       -1.7214575828
 H        -8.7281372879       -5.4808252772       -0.9883718162
 H        -7.6775241508       -4.3933027263       -1.8125929483
 H        -7.5168916844        1.4173272993        4.0016653457
 H        -7.9500174410        2.3666139638        2.4935699682
 H        -7.4985183751        0.6274830464        2.6247588078
 H       -10.8673093346        2.3145220338        4.5860063575
 H        -9.3451292396        2.2737777107        5.3163110755
 H       -10.5071058373        0.8779304460        5.3801054986
 H       -14.8531765607        2.6368408607        0.4828132488
 H       -15.2304551815        0.9861129111       -0.1013366496
 H       -15.6959607355        2.2776255618       -1.1192621349
 H       -12.5583872160        1.2662777575       -2.6796855579
 H       -14.0624166060        2.0694555799       -3.0627860405
 H       -13.9404601735        0.3502476740       -2.5539183930
 H       -12.5054925338        6.6309461024        3.0852140587
 H       -10.9804183756        7.5614812780        3.0800727668
 H       -11.1028657199        6.2510478814        2.1435868453
 H       -14.3719772280        8.9353873119        1.4069655064
 H       -12.8240744162        9.8176061535        1.9184950151
 H       -13.5442883436        8.6092848208        2.9108938628
 H        -7.5990241296       10.8644652896        1.0058864265
 H        -8.9201408469       11.5465745326        2.0837598056
 H        -7.1672837582       12.1879851199        1.9776196126
 H        -7.6498514278       14.5993506419        0.9055625355
 H        -9.1975589782       14.1917657910        1.7411155817
 H        -9.2367302759       14.7870774379        0.1776747403
 Na       -9.9653575629        1.9346562562       -1.3270689908
