117

 C        -7.2908516826       13.8618568527       -1.8565990034
 C        -7.1542364665       12.7321740364       -0.8258477651
 O        -6.2792213762       11.9128050735       -0.9032749247
 C        -8.2548055266       12.6193058851        0.2533260175
 C        -9.6727136639       12.1365216249       -0.4292528946
 O       -10.4663061382       12.9238959569       -0.7849998304
 C        -9.9047415991       10.4828230182       -0.7284058498
 C       -11.0851929437        9.9207462419        0.1840736487
 C       -11.2476200090        8.4199197965        0.3462295371
 O       -10.4101829908        7.6823629628       -0.0309355715
 C       -12.3918757319        7.9077961991        1.3121132791
 C       -13.3907029203        6.8776111158        0.6012046470
 O       -14.5597815295        6.7774980524        0.8169195679
 C       -12.6767229834        5.7642738581       -0.2318969146
 C       -13.6819087280        4.6017010201       -0.5243997906
 C       -12.8639698296        3.4771006502       -1.0433660346
 O       -11.7773433088        3.6198785772       -1.6518357285
 C       -13.5193308390        2.0418503954       -0.9683350190
 C       -12.5419732879        1.2308581300       -0.0490188958
 O       -11.6032158918        0.6959937432       -0.5755650730
 C       -12.6725398157        1.2859270625        1.4443440003
 C       -11.7957229483        2.2813383779        2.1826209753
 C       -10.2211837348        1.8435101315        2.2468825226
 O        -9.6537727461        1.9768597003        1.2029280174
 C        -9.5074018784        1.2107990055        3.4624011643
 C        -9.8120573834       -0.3371343844        3.3254684015
 O       -10.6664398172       -0.9283357505        3.9268875021
 C        -9.0702371898       -1.1366059485        2.2552763565
 C        -9.7169999140       -2.6066146996        2.1842588189
 C        -9.8280781679       -3.0038170058        0.7396910822
 O       -10.7180750293       -2.7577623658        0.0120401441
 C        -8.5103954127       -3.6868376694        0.0889458854
 C        -7.7869681580       -2.2291444433       -0.3675912450
 O        -6.8150330994       -1.7154234951        0.2248831950
 C        -8.3764803821       -1.5851060775       -1.5303793915
 C        -7.5560768702       -0.3962032385       -1.9712837681
 C        -8.1742133063        0.5165043603       -2.9159541536
 O        -9.3944036476        0.5618686334       -3.2680640222
 C        -7.1100692925        1.6054731047       -3.6936958301
 C        -7.0450989661        2.8640279071       -2.6423870078
 O        -7.7208894521        2.7936791204       -1.6365977170
 C        -6.1397596542        4.1312207298       -2.7096152325
 C        -5.6420968560        1.0621438704       -3.8721640585
 C        -7.6276634018        1.8175268106       -5.1743856353
 C        -7.8251103710       -4.4025802404        1.3576948988
 C        -8.7084121934       -4.5710919524       -1.1201271994
 C        -8.0022275090        1.4701775642        3.2279516751
 C        -9.9092091662        1.7898259369        4.9161729752
 C       -14.9609376467        2.0470795762       -0.2801350433
 C       -13.5301368416        1.4288416996       -2.4071399141
 C       -11.6284959050        7.0911522308        2.4510828486
 C       -13.3067307047        9.0705993689        1.8759022830
 C        -7.9682089540       11.6052315359        1.4941231916
 C        -8.6314725066       14.0232950928        0.7873774114
 H        -6.4571402933       13.8149094425       -2.5637077782
 H        -7.2241722438       14.9628719841       -1.5525591332
 H        -8.2004685567       14.0100146680       -2.4073262894
 H        -9.0054563733        9.8194235055       -0.5090799867
 H        -9.9256406129       10.4517341257       -1.7618764430
 H       -12.0439839056       10.4834175629        0.1302954360
 H       -10.8575080522       10.1997972740        1.2437686494
 H       -11.8380827851        5.2676927521        0.4260519116
 H       -12.2490729420        6.1939697956       -1.1721814949
 H       -14.3531389421        4.8383202475       -1.4075318469
 H       -14.2606191428        4.4231922493        0.3973060161
 H       -12.5251995385        0.3728250562        1.8925319343
 H       -13.6808395355        1.5368645819        1.8884616173
 H       -11.9908993756        2.3187108043        3.3276083099
 H       -11.8717910721        3.2758040101        1.8444395011
 H        -8.0272461763       -1.1402803026        2.6255561504
 H        -8.9046748336       -0.6623011016        1.2811288217
 H       -10.6740965447       -2.6403536935        2.6650068835
 H        -9.0952574903       -3.3878534073        2.4361330018
 H        -9.2999837940       -1.0955204929       -1.2454776055
 H        -8.7505698301       -2.1574514476       -2.2988527415
 H        -6.6361339822       -0.8269960178       -2.3779054993
 H        -7.3534177035        0.2681036429       -1.2268802134
 H        -6.4150236315        4.7385472201       -1.8959322732
 H        -6.2719971352        4.5657371041       -3.6774761460
 H        -5.1186708037        3.7232107921       -2.5878113470
 H        -5.1922792124        2.0570902550       -4.0546584746
 H        -5.4491340905        0.2521905390       -4.6808676203
 H        -5.0278497769        0.7580355461       -2.9144848484
 H        -7.4589039004        2.8134476083       -5.6998015314
 H        -8.7563065337        1.7276877016       -5.1398312827
 H        -7.4046091945        1.1470363746       -5.9903611387
 H        -7.0550592415       -5.1464305823        0.9318812511
 H        -8.5946104073       -5.1314448087        1.6852505724
 H        -7.4282529759       -3.6664009979        2.0576846565
 H        -9.6487795267       -4.1732312646       -1.5627545550
 H        -8.7553415650       -5.6058584068       -0.8254670039
 H        -7.7688287465       -4.5818637911       -1.7373892726
 H        -7.4707696792        0.8182308600        3.9527288291
 H        -7.8777947279        2.5547659057        3.2813949319
 H        -7.6326546762        1.0379524307        2.2973230670
 H       -10.7100850998        2.5182342528        4.8866310344
 H        -8.9758990661        2.3554998205        5.2547479987
 H       -10.1458006618        1.0157787145        5.6161044703
 H       -14.9818886189        2.6055115777        0.7201560537
 H       -15.3715712326        1.0161431728       -0.1331240726
 H       -15.6774616657        2.4969086582       -0.9834184763
 H       -12.6259155394        0.9327678893       -2.7971656306
 H       -13.8545338154        2.0730544712       -3.1144516603
 H       -14.2609305354        0.5647796469       -2.4386623912
 H       -12.2331818279        6.3950043574        2.9309875009
 H       -11.2437826504        7.7568236771        3.1068457927
 H       -10.6138836784        6.6270684157        2.1522713664
 H       -14.1314913415        9.0935030333        1.2872223510
 H       -12.6021445009        9.8889667566        1.8546287303
 H       -13.5859031652        8.5574035503        2.8367815929
 H        -7.3051520855       10.8687992372        1.0795744802
 H        -8.9534135841       11.1871320020        1.7749190946
 H        -7.4921208125       12.0015712040        2.2585530291
 H        -7.8498757923       14.6694628490        0.6632526753
 H        -9.0072444668       13.9598904356        1.8139731352
 H        -9.5265103093       14.3942641477        0.2919506523
 Na       -9.9580496769        1.9238746279       -1.4101939526
