117

 C        -7.4906413292       13.7382968089       -1.8505343437
 C        -7.2210917643       12.6476571341       -0.9318156055
 O        -6.2875010420       11.8305804360       -0.9819233354
 C        -8.4193126404       12.4881367684        0.2245980161
 C        -9.6047183719       11.9438617008       -0.6219896719
 O       -10.2797460528       12.7766771577       -1.1701652354
 C        -9.8770130274       10.4901036838       -0.6042130182
 C       -11.0275758235       10.1849664500        0.2116895692
 C       -11.1047170082        8.6175760373        0.3409181603
 O       -10.2297619859        7.8784257634       -0.0488973448
 C       -12.3966777905        7.9702795708        1.2167771252
 C       -13.2873192161        6.7997961961        0.5143612002
 O       -14.4922247173        6.8611687961        0.5901027455
 C       -12.5884511574        5.7780909372       -0.3527986550
 C       -13.5916345008        4.6513888971       -0.6361975342
 C       -12.8532921146        3.4171544840       -1.1985829274
 O       -11.7433107563        3.5538902540       -1.5684358982
 C       -13.5847686685        2.0090972792       -0.9307328531
 C       -12.5837235703        1.1365250986       -0.0098423276
 O       -11.6489219316        0.5678520391       -0.5517104848
 C       -12.7233009391        1.1699601131        1.5169011724
 C       -11.6696166008        2.2230722643        2.1114435982
 C       -10.1233220118        1.8366317381        2.1566970159
 O        -9.4487810087        1.9596087583        1.1943278760
 C        -9.4381071908        1.2527545967        3.4639574844
 C        -9.8965011625       -0.3097160760        3.4676775993
 O       -10.8208333078       -0.6351733890        4.2063643854
 C        -9.2065714985       -1.3362523857        2.3612665720
 C       -10.0190853609       -2.6309999834        2.3001447827
 C        -9.8235957116       -2.9846618024        0.7668458443
 O       -10.6651019235       -2.6332393335       -0.0307144822
 C        -8.4188702123       -3.6051614453        0.1951854511
 C        -7.7724381889       -2.2901753736       -0.3173965678
 O        -6.9453242030       -1.6554644125        0.2938207382
 C        -8.5468044424       -1.6153600168       -1.5411683199
 C        -7.6744650547       -0.3666909398       -1.9211148567
 C        -8.1575004358        0.5598796688       -3.0464368271
 O        -9.3338464186        0.6700736769       -3.3185184631
 C        -7.2227394940        1.6593319280       -3.5916461515
 C        -7.1828381678        2.7271595711       -2.6157436666
 O        -7.7392113717        2.6537448036       -1.5420349315
 C        -6.0188439667        3.8775416316       -2.7367506882
 C        -5.7723331570        1.0477695663       -3.7124401951
 C        -7.7396707806        1.9762779541       -5.0216808875
 C        -7.6730834045       -4.3239058594        1.3350418672
 C        -8.8062804005       -4.5977335789       -0.8649813560
 C        -7.9102632154        1.4706048904        3.3901642736
 C        -9.8422362492        1.8080899461        4.8560920673
 C       -15.0162783970        2.0479251644       -0.3343383452
 C       -13.6123032440        1.4658830935       -2.3505365841
 C       -11.6444127034        7.2708050866        2.3622217189
 C       -13.2753816821        9.0773531949        1.8977027004
 C        -7.7790845619       11.5486130206        1.3078374127
 C        -8.6211010322       13.8885836655        0.9385102536
 H        -6.9547958224       13.4909493102       -2.7442907550
 H        -7.0645273763       14.6623489946       -1.6361773686
 H        -8.4787669587       14.0953980019       -2.0333763743
 H        -8.9698168489        9.8329982339       -0.3842534123
 H       -10.0696881306       10.2502106953       -1.6739011297
 H       -11.9454735582       10.6368923624       -0.1720702163
 H       -11.0574405307       10.6390713063        1.1970736032
 H       -11.6434773603        5.2904697746        0.0951887997
 H       -12.3098248157        6.3510723458       -1.2111902471
 H       -14.1936606189        5.0149677091       -1.4412150560
 H       -14.2064896685        4.5066405123        0.2612889847
 H       -12.5678138654        0.1787313881        1.9486854094
 H       -13.6303361384        1.4007011229        2.0328345946
 H       -11.8199098890        2.5843039042        3.1343608773
 H       -11.7089642515        3.1453304853        1.5057147112
 H        -8.1084206291       -1.3018956765        2.6287473772
 H        -9.1773783865       -0.9188709419        1.3018909922
 H       -11.0279716601       -2.2295408538        2.3416004693
 H        -9.8316942417       -3.5667616535        2.9146362614
 H        -9.4949452969       -1.2336377979       -1.3218169841
 H        -8.8432845067       -2.2490186191       -2.4802237918
 H        -6.7724648330       -0.8720266118       -2.2154506225
 H        -7.4231479550        0.2709909261       -1.0940847941
 H        -6.3387497770        4.6839284161       -2.0146707525
 H        -5.9210409966        4.2337058779       -3.8078473714
 H        -5.1298312677        3.3662647829       -2.3699576739
 H        -5.2089993362        1.9814172732       -3.8799469260
 H        -5.7299834510        0.3543509792       -4.5488190700
 H        -5.2155810914        0.5420816265       -2.8330026369
 H        -7.4039321699        2.9667779176       -5.4257581482
 H        -8.7484800970        1.9666439094       -5.0002441880
 H        -7.6060349493        1.2992845432       -5.8779668346
 H        -6.9490849187       -4.9419587846        0.8043631603
 H        -8.4500164145       -5.1378185722        1.4918886898
 H        -7.3507721969       -3.7126858836        2.2188162961
 H        -9.7338060526       -4.1140569622       -1.3706262563
 H        -9.0173094749       -5.5865948213       -0.3547136573
 H        -7.9738845663       -4.8994910506       -1.4392658167
 H        -7.3332415073        0.4934913321        3.5572234303
 H        -7.6820031889        2.3213812184        4.0256084565
 H        -7.6217234378        1.6629399785        2.3642549346
 H       -10.7050049419        2.5316650209        4.9926735983
 H        -8.9980992397        2.2975284361        5.3002752005
 H       -10.0015424728        0.8751532828        5.4474443625
 H       -15.1592331878        2.4765280740        0.6947627809
 H       -15.5601894927        1.1075912352       -0.4061923099
 H       -15.4989634652        2.7173615857       -1.1071700034
 H       -12.7046006077        0.9653041943       -2.7523054193
 H       -13.8830301621        2.2133868674       -3.1121693861
 H       -14.3009822516        0.7012156286       -2.4378847954
 H       -12.1423413133        6.3751359869        2.8087581953
 H       -11.4001682075        8.0229937563        3.1239807723
 H       -10.6383714074        7.0282231238        2.1261968429
 H       -13.7566784467        9.5568418063        1.0738456415
 H       -12.4064469632        9.6822284004        2.3207238466
 H       -13.9502647888        8.4651869245        2.4714117101
 H        -7.0260668029       11.0367343462        0.8359156320
 H        -8.5632565702       10.9351154732        1.7227541666
 H        -7.3043862862       12.1089545725        2.1509754548
 H        -7.6374647049       14.4279387081        0.8015936033
 H        -8.9590667365       13.8410737587        1.9158347263
 H        -9.4197347578       14.4237005544        0.3889687521
 Na       -9.9630634116        2.0070881936       -1.4432814872
