117

 C       -13.5587572807        4.5930219510       -7.0190131486
 C       -12.2637948828        4.3731595741       -7.7876023541
 O       -11.5447469266        5.3263754627       -8.0546578264
 C       -11.8146617910        2.7885184805       -8.2597218715
 C       -10.6009133831        2.4720419223       -7.3242125701
 O       -10.6293425288        1.4368247698       -6.6456292263
 C        -9.4029291048        3.3935431546       -7.4417327618
 C        -8.4090579661        3.1194334029       -6.3027486466
 C        -8.9285799812        3.3227217085       -4.8926958667
 O        -9.9079402789        4.0019556398       -4.6952626285
 C        -8.4045866494        2.5989136514       -3.6189021534
 C        -7.8876351146        3.7845707403       -2.6506571747
 O        -6.6649510234        3.8818988603       -2.4934883261
 C        -8.9592344764        4.7525616102       -2.0370600312
 C        -8.3803729640        6.0172523487       -1.3167911729
 C        -7.7398331859        5.8034261077        0.0402135987
 O        -8.1097404832        4.7799738912        0.6193316150
 C        -6.8192094326        6.9115467823        0.7624790182
 C        -7.8077149952        7.3922824298        1.8535787931
 O        -9.0189853051        7.2453190814        1.7577271603
 C        -7.3012785922        7.8450739388        3.2016060912
 C        -8.4928896559        7.9054454782        4.1490520282
 C        -9.0131284791        6.4923306346        4.3988049278
 O        -8.2310098427        5.5429415717        4.4044716434
 C       -10.5439351118        6.3846162483        4.7960430692
 C       -11.1178590445        4.9199286460        4.6502407532
 O       -10.5807459450        4.1330912171        3.9079673966
 C       -12.3545183891        4.4368160281        5.3734021638
 C       -12.8456209446        3.0480919570        4.9571526179
 C       -13.1867109912        2.9115136744        3.4255124309
 O       -13.3003388119        3.8707906222        2.6800943379
 C       -13.5568926581        1.4599346197        2.7745212215
 C       -12.1319641584        0.6555205303        2.8349490918
 O       -11.6192581284        0.4500442401        3.8617498982
 C       -11.6010438996        0.0913593309        1.4994232027
 C       -10.1266522341       -0.1922545653        1.6535802103
 C        -9.1275411016        1.0601537598        1.7255069324
 O        -9.5266030155        2.1401392540        1.4102527809
 C        -7.6043999838        0.7678486317        1.9846432346
 C        -7.3469365469        1.1730129980        3.5405063555
 O        -7.3533037769        2.3445815763        3.8356938646
 C        -6.9641030845        0.1124957590        4.6253856334
 C        -7.2154983719       -0.7925499741        1.7507762293
 C        -6.6545334708        1.7055391264        1.1408912290
 C       -14.5802005248        0.6550190273        3.7180290855
 C       -14.2429021635        1.6286874560        1.3816100994
 C       -10.9556106186        6.9380203748        6.2566031924
 C       -11.4059591473        7.1024089130        3.6754542448
 C        -5.5296190614        6.2441680664        1.2693517351
 C        -6.2658933829        8.0284766935       -0.1184232344
 C        -9.5442532042        1.8627491074       -2.9242298905
 C        -7.1402613350        1.7670005536       -3.9241392403
 C       -12.9586955756        1.7456070050       -8.3182924364
 C       -11.3271491641        2.9865016791       -9.8594056558
 H       -13.4252420422        5.5058484972       -6.3925177637
 H       -13.6486145095        3.6525584100       -6.5014661306
 H       -14.4769525699        4.7067594952       -7.5384328074
 H        -9.8656359713        4.3696572645       -7.4331884510
 H        -8.8816885207        3.3448272796       -8.3496232236
 H        -7.5589355652        3.8473444679       -6.4143621967
 H        -7.9745585356        2.1184464443       -6.2584840350
 H        -9.4690067791        4.1776580492       -1.2350724025
 H        -9.7271051370        5.0525034333       -2.6608179157
 H        -9.1427878548        6.7621055414       -1.1855062234
 H        -7.6436937574        6.4629037325       -2.0213321433
 H        -6.9034324878        8.8234453402        3.1427288572
 H        -6.5022872091        7.1832006059        3.5708695376
 H        -9.2569745726        8.5655194585        3.7684669381
 H        -8.1863077766        8.2973474677        5.1580927504
 H       -13.1626638737        5.0998210227        5.1567771426
 H       -12.1701542485        4.4808590201        6.4462967358
 H       -13.7299378603        2.8121493233        5.5402226018
 H       -12.1575481296        2.3066859832        5.2910132006
 H       -11.6653271834        0.7932023000        0.7243454336
 H       -12.1707328730       -0.8111654652        1.3174525046
 H        -9.7794115886       -0.9337583210        0.8414750021
 H       -10.1019996889       -0.6832765098        2.7186551481
 H        -6.7949357758        0.6650827599        5.5293085476
 H        -6.0060925080       -0.3863686332        4.2674023811
 H        -7.5795069870       -0.7886909833        4.6872587327
 H        -7.6948855798       -1.0365115061        0.8098540278
 H        -7.5329846031       -1.5143199009        2.4583786794
 H        -6.1026202464       -0.8841137876        1.7753260026
 H        -6.9658717355        2.7974800755        1.2093097157
 H        -6.7022533626        1.4729360835        0.0913083157
 H        -5.6189261593        1.4687471745        1.4410575817
 H       -14.3081262609        0.6929708340        4.7620333382
 H       -14.5778106500       -0.4250837812        3.3635491912
 H       -15.6357137454        1.1012165173        3.6256570600
 H       -15.3254351300        1.6173093510        1.4986357654
 H       -13.8249277940        0.8618155004        0.6123263979
 H       -14.0928068910        2.6877129176        1.0003978463
 H       -10.6194887153        7.9887994058        6.3482364609
 H       -10.3323854671        6.4250355303        6.9615494568
 H       -12.0862092712        6.9873293796        6.3784373260
 H       -11.0927086736        6.8118784924        2.6687441829
 H       -11.0962099871        8.1863032269        3.5986310730
 H       -12.4542871760        6.8157385463        3.7829391623
 H        -5.0324307296        7.1123875431        1.7435236956
 H        -5.0389326306        5.6482150935        0.5331630271
 H        -5.6295951263        5.5128102334        2.0152403580
 H        -5.3803010712        7.7030327219       -0.8086620885
 H        -5.8946142716        8.8866494336        0.5006073696
 H        -7.0492299096        8.3759637359       -0.7426976370
 H        -9.7698147776        0.8947118327       -3.3491198326
 H       -10.4073971229        2.5124799518       -3.0095579871
 H        -9.4077128698        1.6616364205       -1.7996936927
 H        -7.3174718747        1.0335433049       -4.6477815759
 H        -6.6881036758        1.3479071803       -3.0573934688
 H        -6.3681393920        2.4103502943       -4.2870930531
 H       -13.3707878553        1.5435905681       -7.3278018689
 H       -12.6901375430        0.7538608895       -8.6208027121
 H       -13.7336680565        1.9704790578       -8.9795921641
 H       -10.7529098645        3.8593525545       -9.7424200954
 H       -12.1996096676        3.1894619747      -10.4675284378
 H       -10.8215624620        2.0974825608      -10.1872149827
 Na       -8.8417147095        3.9248440422        2.8821865268
