117

 C        -6.9107687407       14.0635215828       -1.9477781341
 C        -6.9586159638       12.6561456087       -1.4691116891
 O        -6.0985696823       11.8345727372       -1.4984845666
 C        -8.0600850161       12.3049414198       -0.3008443389
 C        -9.3694598814       11.7935391509       -1.1340068217
 O       -10.0442248964       12.5621671434       -1.8785188138
 C        -9.8015904253       10.2432124294       -1.0802946419
 C       -10.8169260370        9.9175684753        0.0669709644
 C       -11.1383663264        8.4541331462        0.3430390714
 O       -10.3083113581        7.6197384067       -0.0250467620
 C       -12.4112356532        8.0042969064        1.1281668287
 C       -13.1872835412        7.1522320589        0.1844938200
 O       -14.2261839944        7.5678951570       -0.3165384466
 C       -12.5495298690        5.7835529902       -0.1800470168
 C       -13.3778220251        4.7396093391       -0.9063968755
 C       -12.4775993537        3.4025647855       -0.9635471185
 O       -11.2943991019        3.4123043956       -1.3266676792
 C       -13.2306292857        2.0553265928       -0.8162268989
 C       -12.3800901602        1.0184067463        0.0031623368
 O       -11.6406502372        0.1931280638       -0.5562975181
 C       -12.3986420772        1.2120794097        1.4935336543
 C       -11.4352053914        2.2924699240        2.0103256102
 C        -9.9957659839        1.5839850855        2.0376706913
 O        -9.3492844068        1.0924696515        1.0999935853
 C        -9.4669140640        1.3120815398        3.5038362729
 C       -10.1382966206       -0.0423018161        3.8189185488
 O       -11.1756913423        0.0180098994        4.3906747221
 C        -9.6567885843       -1.4202988077        3.1395881087
 C       -10.6848647756       -2.4281489429        2.6052456182
 C       -10.4121221512       -2.8839021813        1.1638079549
 O       -11.3648170374       -2.9297791585        0.4497759678
 C        -9.0015106075       -3.3472077613        0.6556842351
 C        -8.1963829504       -2.1697566267        0.0044769058
 O        -7.3487691464       -1.6012578710        0.6701616410
 C        -8.4521224784       -1.6837630165       -1.4746029375
 C        -7.5011424597       -0.6327431909       -2.1573477028
 C        -8.1294558782        0.5513713860       -2.8619712952
 O        -9.2964411919        0.6247499555       -2.9293478387
 C        -7.3110881874        1.7532949236       -3.5803177618
 C        -6.9187342859        2.6480552585       -2.3536407419
 O        -7.9121301515        2.9159459188       -1.6406840601
 C        -5.5267591647        3.2440293589       -2.1666126437
 C        -5.9768430813        1.2606292369       -4.3041753511
 C        -8.3022578334        2.4242405283       -4.5506395449
 C        -8.2165585188       -3.8561729616        1.8760709910
 C        -9.1354770132       -4.5143218762       -0.3803978021
 C        -7.9303731285        1.3003194102        3.3769725409
 C        -9.8427724763        2.3891368418        4.5614542342
 C       -14.6285959676        2.3506503380       -0.0271368932
 C       -13.6545576592        1.7183040440       -2.3271635029
 C       -11.9588081920        7.1407215847        2.3513082951
 C       -13.3858557052        9.2381970854        1.6156665118
 C        -7.4665355961       11.3424137501        0.6781591075
 C        -8.6048334346       13.6437015332        0.2986539296
 H        -7.7909610486       14.5925441111       -2.1210355651
 H        -6.5189072957       14.1929452362       -2.9379093140
 H        -6.1948591520       14.6193085078       -1.3787255728
 H        -8.9012764274        9.6758346250       -1.0940676256
 H       -10.5398809845       10.1597183603       -1.9399727253
 H       -11.7827382299       10.3459092668       -0.1022390389
 H       -10.5387808366       10.2947370125        1.0762912156
 H       -11.9079718817        5.2377259269        0.4236526882
 H       -11.7256672324        6.1529052976       -0.8583953227
 H       -13.6309256544        5.0038285717       -1.9117154656
 H       -14.1877006790        4.4817078409       -0.2547106801
 H       -12.1451639213        0.2620482122        2.0789284568
 H       -13.4457347797        1.4565032075        1.7915458015
 H       -11.5878444935        2.6652349352        2.9735587018
 H       -11.3501092677        3.2085075644        1.3392866518
 H        -8.9030909757       -1.8023878797        3.9274753399
 H        -9.1359326377       -1.0841649692        2.1979413480
 H       -11.7138191873       -2.0962467172        2.8327350223
 H       -10.7076668937       -3.3495400072        3.2225383066
 H        -9.5816618688       -1.5690290384       -1.5450786978
 H        -8.2507746997       -2.5846475913       -2.0663302079
 H        -6.9650539560       -1.2397003844       -2.8141657088
 H        -6.6105601870       -0.4190806808       -1.5634747376
 H        -5.5483342016        4.2090471952       -2.7198261359
 H        -4.8452103150        2.5623703291       -2.6846935809
 H        -5.3939173339        3.1893779195       -1.0481252649
 H        -5.6154652994        2.1756156146       -4.8170805265
 H        -6.2748660894        0.5110133579       -5.1386410781
 H        -5.3620111387        0.7146518293       -3.6236035050
 H        -7.8979920882        3.2602976329       -5.0068060456
 H        -9.3285132563        2.7630404455       -4.1702456371
 H        -8.6769974644        1.8156829145       -5.3577152300
 H        -7.3493730292       -4.4830115334        1.5103977931
 H        -8.9408470786       -4.2501280682        2.5957520159
 H        -7.8488721916       -2.9654197927        2.4433358814
 H        -9.7823670222       -4.2506820077       -1.1937652833
 H        -9.2921318169       -5.4159639684        0.2653170790
 H        -8.0624099456       -4.5464952164       -0.8423696568
 H        -7.5694234609        1.2212042157        2.4043960121
 H        -7.4120394865        0.4058753230        3.7571112319
 H        -7.5503001235        2.2860487141        3.7526548912
 H       -10.5913633040        2.0017709431        5.2571360417
 H       -10.2931682792        3.3758897028        4.2320919531
 H        -8.9771362845        2.7649423025        5.1547549857
 H       -14.6450734800        2.9182490854        0.8821678876
 H       -15.1211992081        1.3907496578        0.2897008412
 H       -15.2533794173        2.9932158224       -0.6445657161
 H       -12.7990682425        1.5803656039       -2.9158066836
 H       -14.2007769074        2.4359230800       -2.9271749733
 H       -14.1509864309        0.7130217020       -2.4456880466
 H       -12.7582542893        6.6999314649        2.9308137415
 H       -11.5028355508        7.8708757298        3.0648789470
 H       -11.2211637024        6.3160133228        1.9804832291
 H       -13.9839048809        9.4159200900        0.7829498033
 H       -12.6626581134        9.9895105713        1.8210113678
 H       -13.7899855923        8.7309166036        2.5028176944
 H        -7.0975410126       10.5103558652        0.0137275722
 H        -8.2849964181       10.9669753075        1.2232880787
 H        -6.7432081199       11.8337944765        1.2861787385
 H        -7.8408024613       14.2061999956        0.7938915547
 H        -9.3546897695       13.4989571176        1.1255241030
 H        -8.9426791855       14.1593408329       -0.5444901111
 Na       -9.7659614968        1.5801489776       -1.1195843839
