117

 C        -6.6510336196       14.1220335557       -1.9534208516
 C        -6.8435565937       12.6921109221       -1.4733013838
 O        -5.9882963108       11.8728872521       -1.6722544490
 C        -8.1480351887       12.2570361062       -0.5482350303
 C        -9.4012783034       11.7120818554       -1.2268306361
 O       -10.1014031289       12.4167233943       -1.9047891485
 C        -9.7456960663       10.1555286057       -1.1245572665
 C       -10.7601277180       10.0563422671        0.0799686326
 C       -11.0325096838        8.4502977035        0.3420737870
 O       -10.3004328713        7.5897359401        0.0143373673
 C       -12.3347239376        8.1103568052        1.1594790207
 C       -13.1729312171        7.1952229160        0.0486940348
 O       -14.1753272754        7.5468993542       -0.4530461732
 C       -12.5038247267        5.7942963351       -0.2060677357
 C       -13.2646730060        4.7484684433       -1.0776277915
 C       -12.5639833471        3.4176106752       -0.9711077849
 O       -11.3552471116        3.3770907114       -1.1278089741
 C       -13.2543795867        2.0882105335       -0.7976559413
 C       -12.4099680013        1.0022626305       -0.0618660461
 O       -11.6957968451        0.2431650041       -0.6083069910
 C       -12.3923770605        1.1328999739        1.4570764224
 C       -11.3499759616        2.1412708521        1.9010723717
 C        -9.9274814745        1.6244004564        2.1108368657
 O        -9.4611317762        1.0177347840        1.1666042654
 C        -9.3073432064        1.4444282724        3.5221268330
 C       -10.2129914011        0.0791623547        3.7118144178
 O       -11.2587003945        0.0882718458        4.3873875535
 C        -9.6193615112       -1.3075563293        3.2730032789
 C       -10.8512401945       -2.2023524617        2.6465721295
 C       -10.6279131213       -2.8648573756        1.2573033410
 O       -11.5722941401       -2.9401504774        0.5522265034
 C        -9.0922387441       -3.3153423634        0.7390499217
 C        -8.2214522667       -2.0206837323        0.1887855497
 O        -7.3507445407       -1.4841822861        0.8814528833
 C        -8.4305878723       -1.6735247229       -1.3627830613
 C        -7.4353679202       -0.8525365290       -2.1512267915
 C        -8.1011714790        0.3176624042       -2.8699202253
 O        -9.3255166121        0.4721927297       -2.8997580956
 C        -7.3527591346        1.7264013240       -3.6378884592
 C        -6.9742900495        2.5908150208       -2.3265026310
 O        -7.8426938416        2.9223327355       -1.5387465972
 C        -5.5520529640        3.0102322370       -2.1209291130
 C        -6.0163294483        1.4816319877       -4.4232022164
 C        -8.3345890818        2.4254120395       -4.5178897856
 C        -8.1254724522       -3.8808214898        1.8906092800
 C        -9.2801701171       -4.4229975811       -0.3184878147
 C        -7.7754701316        1.2753282354        3.4573770541
 C        -9.8150552965        2.2166179383        4.6905274271
 C       -14.6880575594        2.2166478918       -0.0833958936
 C       -13.5594826421        1.7308409914       -2.2023014430
 C       -11.9319949028        7.2269057362        2.3656731768
 C       -13.3067743387        9.3046183708        1.4197659898
 C        -7.5977388931       11.2707555100        0.5220397944
 C        -8.5811956207       13.6281749823        0.1713999701
 H        -7.3698069671       14.9039118346       -1.9878508297
 H        -6.5310342740       13.9316059022       -3.0376374126
 H        -5.7537008875       14.5885817862       -1.7162303956
 H        -8.8420153077        9.5503273063       -0.8694548729
 H       -10.2865804364        9.9178563074       -2.0059383921
 H       -11.7283674958       10.5083490195       -0.0905360189
 H       -10.3092903323       10.4539420121        0.9749887181
 H       -12.2776286332        5.2060710466        0.6766520745
 H       -11.4312087407        5.9571778390       -0.3842572422
 H       -13.2005292066        4.8776457086       -2.1489446364
 H       -14.2349125362        4.6582843382       -0.6977065860
 H       -12.0805166940        0.1234891883        1.7532854000
 H       -13.4713673696        1.3000791222        1.9103235028
 H       -11.4782641991        2.8376665147        2.8050827221
 H       -11.2261888014        2.8161737109        1.0767802023
 H        -9.0966539344       -1.5642894330        4.2272440012
 H        -8.9489823698       -1.0928323322        2.4078596386
 H       -11.7979183270       -1.6419515837        2.8082573815
 H       -11.1935016951       -3.1187352966        3.1935668954
 H        -9.4680333705       -1.1062700863       -1.4132294647
 H        -8.6484036596       -2.5998887324       -1.8561231664
 H        -6.6798924987       -1.5141606797       -2.7435836778
 H        -6.6010629846       -0.4426798728       -1.4805020516
 H        -5.1721702154        3.7123782834       -2.8728257528
 H        -5.0640734183        1.9978811179       -2.2109975492
 H        -5.5927207902        3.1284568657       -0.9950981374
 H        -5.4945822066        2.3427571581       -4.4360418239
 H        -6.2603239592        1.3762942740       -5.4396912252
 H        -5.5253084686        0.5823942688       -4.0707921754
 H        -7.9782227600        3.4784430556       -4.8158660028
 H        -9.2101526013        2.6798184789       -4.0026917932
 H        -8.7126552980        2.0067025780       -5.4215639993
 H        -7.6071517629       -4.7259618489        1.3491588401
 H        -8.7301478014       -4.1520073184        2.7210046101
 H        -7.3920340666       -3.2170712079        2.2516342433
 H        -9.9637665928       -3.9843677155       -1.0594716748
 H        -9.6118984488       -5.2953091457        0.2069753764
 H        -8.3094796305       -4.5432592013       -0.8769152267
 H        -7.3341212400        1.3921593444        2.4475467428
 H        -7.3699903565        0.2942216416        3.5899398471
 H        -7.3579508278        2.0331698217        4.0856394260
 H       -10.8263511776        1.9300029957        4.9556119855
 H        -9.8690247152        3.3724458752        4.5534267356
 H        -9.1968397490        2.1811995973        5.5808562092
 H       -14.6651579852        2.6770238456        0.9152849195
 H       -15.0486055901        1.2174455008        0.1358314815
 H       -15.4036383297        2.8247542769       -0.5809874510
 H       -12.6291514904        1.3646631786       -2.7591123387
 H       -13.8161535034        2.5369808941       -2.8004663948
 H       -14.3413341275        0.9753780813       -2.4528325740
 H       -12.7130462695        6.4294486873        2.4633910056
 H       -12.0338518284        7.6889622948        3.3431641187
 H       -10.9270759899        6.6418909419        2.0964821663
 H       -13.8137635658        9.3072935942        0.5545683876
 H       -12.6609979006       10.1425121848        1.5245897330
 H       -13.8095188439        9.0040957943        2.3240662713
 H        -7.0904551774       10.5380266786       -0.1309357584
 H        -8.4305477222       10.7019832308        1.1411787246
 H        -6.9281764418       11.8400094868        1.0659505062
 H        -7.7558732950       14.2746707730        0.2851862146
 H        -8.6672256005       13.2861581298        1.2362334697
 H        -9.4371801091       14.1913267359       -0.2955080081
 Na       -9.8190376973        1.7076082605       -1.1305860136
