117

 C        -6.5307151790       14.0875422855       -2.0837812515
 C        -6.7741208255       12.7101580479       -1.5281294534
 O        -5.9729938525       11.7917049948       -1.8133890638
 C        -7.9744077151       12.3361160149       -0.6276564917
 C        -9.3614845739       11.6570000301       -1.4721629316
 O       -10.1796067616       12.3229808189       -1.9856782917
 C        -9.6465717741       10.1068926139       -1.1570407863
 C       -10.6750299959       10.0335224181        0.0046577384
 C       -10.9806757319        8.5429980069        0.3493429055
 O       -10.1739171143        7.6734320285        0.0269835968
 C       -12.4177081104        8.0963332841        0.9948771927
 C       -13.0675951438        7.1068173881       -0.0101221928
 O       -14.0983759738        7.4523856320       -0.6378535561
 C       -12.4970411188        5.7651214307       -0.1520347581
 C       -13.1940000767        4.9041221603       -1.1515385513
 C       -12.5468406425        3.5102139063       -0.9857933481
 O       -11.3401264473        3.4588035219       -0.9530963499
 C       -13.4038012902        2.0840558323       -0.8446307556
 C       -12.4653186853        1.0182747238       -0.0304990447
 O       -11.8029526499        0.3480703580       -0.7781662697
 C       -12.3032616351        1.0847451632        1.5397078305
 C       -11.3513803962        2.2266927308        1.9234339742
 C        -9.9649480436        1.5489978842        2.1242066970
 O        -9.3653107528        1.0882185931        1.1902403581
 C        -9.3654318922        1.3216991524        3.5979263357
 C       -10.1494935636       -0.0644495851        3.9456226179
 O       -11.3230940027        0.1096390360        4.2445366934
 C        -9.5830766766       -1.3211561902        3.2465022473
 C       -10.8183950915       -2.0780358071        2.7014146174
 C       -10.5608794239       -2.6989500329        1.3625347654
 O       -11.5252315347       -2.9991938533        0.6405582723
 C        -9.1218026703       -3.1691334922        0.7982812665
 C        -8.2361753135       -2.0315155652        0.2044082702
 O        -7.5183930288       -1.3514445095        0.8877891277
 C        -8.5160356583       -1.6320490633       -1.2310649478
 C        -7.3714450513       -0.7998523242       -2.0809128053
 C        -8.0072838784        0.2791122657       -3.0025620115
 O        -9.2818793376        0.2338309277       -2.9466037580
 C        -7.3780095267        1.5886526997       -3.5592412207
 C        -7.0045821141        2.4547970623       -2.2101346547
 O        -7.8496997428        2.8856265577       -1.4978590947
 C        -5.5081353413        2.8129961198       -1.9522058134
 C        -6.1531879091        1.4089489325       -4.5367608993
 C        -8.3512335032        2.3971223818       -4.3354036212
 C        -8.2612424154       -3.9116414369        1.9797122869
 C        -9.4853805617       -4.2424486096       -0.2629373651
 C        -7.8243470082        1.1666756156        3.5381653511
 C        -9.7015952520        2.4002043677        4.6950921916
 C       -14.8126920005        2.1162481148       -0.0997464616
 C       -13.5427965908        1.5194836479       -2.3054369558
 C       -12.0065056109        7.4282053474        2.3417945400
 C       -13.2418318735        9.3531407392        1.4251878686
 C        -7.5944868930       11.2281662628        0.4257945224
 C        -8.6178101445       13.5757416968        0.1845590063
 H        -7.1689038989       14.9826349878       -1.7498455633
 H        -6.4517952626       14.2211836012       -3.1563422431
 H        -5.5484810624       14.4612635712       -1.6993664107
 H        -8.7569282911        9.6382883594       -0.7232769285
 H       -10.0335620534        9.6906265318       -2.0352682879
 H       -11.7325224550       10.3136538609       -0.2252684250
 H       -10.2393251020       10.5321111239        0.8886814305
 H       -12.3714720319        5.2138354576        0.8414803647
 H       -11.4226718614        5.8293905547       -0.2473140807
 H       -12.7351954740        5.1457639641       -2.1206363322
 H       -14.2900565361        4.9787469728       -1.1452863576
 H       -11.9571598696        0.0922018402        1.8321892670
 H       -13.3145922930        1.2455375019        1.9264139127
 H       -11.4940592596        2.5952727915        2.9844673409
 H       -11.4339573136        3.0618103455        1.2352885606
 H        -9.2029682223       -1.8303939569        4.1110838421
 H        -8.8138316823       -1.0653611383        2.5203279121
 H       -11.7206098999       -1.4569858844        2.7801571000
 H       -11.2241283127       -2.8556186104        3.3860514696
 H        -9.2935638344       -0.8873860188       -1.1042930329
 H        -9.0316401536       -2.4321140234       -1.8066508675
 H        -6.6777936456       -1.5160636675       -2.7008883046
 H        -6.5158523419       -0.4293686336       -1.4427759382
 H        -5.1054229254        3.1460477219       -2.9092627613
 H        -4.9889833620        1.9364599285       -1.5300964506
 H        -5.6116723212        3.4605488781       -1.1505051644
 H        -5.6018485194        2.3350388707       -4.6282063445
 H        -6.5936790306        1.4509327382       -5.4551247956
 H        -5.5608475330        0.5452500457       -4.3702372699
 H        -8.0792234114        3.4311033984       -4.6079561557
 H        -9.2535291690        2.6209490112       -3.7818856374
 H        -8.7068615111        1.9510191183       -5.3077121797
 H        -7.9249906914       -4.7141119660        1.4199959337
 H        -8.9013094627       -4.2427596451        2.7877517509
 H        -7.3775551461       -3.4346847358        2.3503610448
 H       -10.1984221732       -3.7408959326       -0.9436823554
 H       -10.0091783711       -5.0016491973        0.2907466995
 H        -8.6921227218       -4.4901432030       -0.8326473891
 H        -7.2971592032        1.3350052751        2.5668834486
 H        -7.4657360612        0.1661484500        3.6112881842
 H        -7.3981364900        1.7650736723        4.2960111137
 H       -10.7053631976        2.8626264037        4.7753417989
 H        -9.0022547667        3.1706278169        4.6411202666
 H        -9.4989092997        2.0576013300        5.7097511360
 H       -14.6875962748        2.6402824151        0.8571873623
 H       -15.1573453525        1.1599745049        0.1706808672
 H       -15.6379776648        2.6575439832       -0.5836678611
 H       -12.5722683847        1.1295358470       -2.6931316173
 H       -13.6900520877        2.3767856675       -3.0439315298
 H       -14.2859137729        0.8632509531       -2.6153601986
 H       -12.6145135752        6.4938589574        2.5971384504
 H       -12.3365391594        8.0384117763        3.1991943415
 H       -11.0564066190        7.1468854307        2.2911549842
 H       -13.5965605549        9.7836785949        0.3771709478
 H       -12.4780310840        9.9070415970        1.9008116079
 H       -13.9057806481        9.0225325792        2.1285667273
 H        -7.1548718614       10.4384924800       -0.1239011522
 H        -8.4650424700       10.8633056483        0.9768446795
 H        -6.7977851218       11.7806410264        1.0551210536
 H        -7.9598010467       14.4974429728        0.2671104682
 H        -8.6203554485       13.2025204894        1.1644097993
 H        -9.6239668922       13.8945561240       -0.2164020979
 Na       -9.8817163838        1.8243784919       -1.0626996341
