117

 C        -6.4997942579       14.0159083519       -2.1637785393
 C        -6.7871154966       12.6158483341       -1.6692479165
 O        -6.0398937811       11.7091474298       -1.9289963225
 C        -8.1075386676       12.2776007723       -0.6295863325
 C        -9.2427091116       11.6319763927       -1.3621079349
 O       -10.0454549429       12.2624199182       -2.0903469363
 C        -9.5305682544       10.1597226138       -1.1955459413
 C       -10.6567370277       10.0234306784       -0.2191463080
 C       -10.9875502670        8.5990138830        0.1540748633
 O       -10.1013492263        7.7162674585        0.0968006942
 C       -12.3132719734        8.2351670305        0.9674918020
 C       -13.0740169530        7.1583759275        0.0232669692
 O       -13.9613722467        7.4520903965       -0.7751187927
 C       -12.4858428544        5.7382387455       -0.0561325911
 C       -13.1951940997        4.8642882018       -1.1843504063
 C       -12.6451746043        3.4584542868       -1.0206608964
 O       -11.4281102727        3.4098489972       -0.8304583735
 C       -13.4093865210        2.1722954212       -0.8993310464
 C       -12.4576449315        1.2312590530       -0.1574965590
 O       -11.7637803447        0.3305669523       -0.7011254270
 C       -12.3723165557        1.1677030385        1.3281086136
 C       -11.3443285844        2.1622415026        2.0972535461
 C        -9.8694927785        1.5799590527        2.2774720810
 O        -9.2625618731        1.3110196248        1.2406426744
 C        -9.3127199406        1.3163698287        3.6324152355
 C       -10.2191138245       -0.0178770993        3.9419985945
 O       -11.3276144078        0.0728983572        4.2756608176
 C        -9.6113405580       -1.2683528985        3.4242906105
 C       -10.6465412899       -2.1773233736        2.8157418309
 C       -10.4900746683       -2.6608205197        1.3629237387
 O       -11.5108685394       -2.9525321891        0.7524785295
 C        -9.1570250651       -3.2045914947        0.7412689610
 C        -8.2802539275       -1.8999784558        0.1637953537
 O        -7.5975274777       -1.2663075939        0.9407517045
 C        -8.5794256642       -1.5090417561       -1.2634962362
 C        -7.3903765782       -0.7619026225       -1.8987158754
 C        -8.0962763272        0.2632000841       -2.8614649498
 O        -9.2614730862        0.1561916821       -3.1517938324
 C        -7.3715724971        1.5105016823       -3.3871904491
 C        -6.9346582724        2.3730470594       -2.2292895737
 O        -7.8788045871        2.6920390430       -1.4987252582
 C        -5.4446354363        2.6382471687       -1.7739831891
 C        -6.2179748421        1.1154437666       -4.4829003032
 C        -8.5164502207        2.4010299576       -4.0717880009
 C        -8.4980095401       -3.8627418628        1.9977818728
 C        -9.5546269623       -4.1952404662       -0.2969534591
 C        -7.8651928511        0.9859291667        3.6065156871
 C        -9.6023623522        2.5418257554        4.5352342568
 C       -14.7774304755        2.2027764508       -0.2392497578
 C       -13.6239419409        1.4849120915       -2.3148013173
 C       -12.0253135305        7.4912507956        2.3837082519
 C       -13.2733972211        9.4846117974        1.2679601571
 C        -7.3866357390       11.3309393534        0.3381283907
 C        -8.6593311792       13.4807453824        0.0950004323
 H        -7.1701058985       14.7472549786       -1.6531053606
 H        -6.4829367293       14.3590691130       -3.2239857604
 H        -5.5358217852       14.4704347655       -1.7090141995
 H        -8.7254407302        9.5343277535       -0.9743091998
 H       -10.0489420718        9.9864219617       -2.1696531100
 H       -11.6364265485       10.4095141042       -0.6298514432
 H       -10.3860197374       10.4034770242        0.8089931819
 H       -12.4860667894        5.2192106197        0.9351811154
 H       -11.3907945985        5.7539366372       -0.0300196688
 H       -12.8810272588        5.3069045803       -2.1587638306
 H       -14.3340426035        4.8852190307       -1.0177820263
 H       -12.1154258215        0.1006188717        1.4547334471
 H       -13.3298990287        1.3914678012        1.6473630507
 H       -11.7097001756        2.3595037001        3.0689264713
 H       -11.3207994165        3.1626527396        1.5456730254
 H        -9.2377065523       -1.8475406619        4.2623434940
 H        -8.8809856301       -1.0410279863        2.7021290027
 H       -11.5548412424       -1.5879678326        2.7915296717
 H       -11.0158694912       -2.8779297853        3.5263469181
 H        -9.4225096990       -0.9309773049       -1.4014140371
 H        -8.7935651848       -2.4676791763       -1.7931438170
 H        -6.7996185035       -1.3804846511       -2.4899612626
 H        -6.5828297796       -0.4569326115       -1.2483200917
 H        -4.9740444388        2.6789431844       -2.7357233122
 H        -5.0275655805        1.9576175852       -1.1163789560
 H        -5.5029670699        3.5395990893       -1.2422191050
 H        -5.7974570533        2.0528795694       -4.9686092222
 H        -6.8394359403        0.7476829694       -5.3698972052
 H        -5.4438468322        0.5038842811       -4.0670417918
 H        -8.3249934948        3.3242023209       -4.4738984145
 H        -9.4796832989        2.7525499189       -3.4748529899
 H        -8.8845986659        1.8181094509       -4.9507830598
 H        -7.8723760546       -4.6853572870        1.7227924945
 H        -9.2452756977       -4.1930224387        2.7410008183
 H        -7.7746563223       -3.1188214992        2.4043509835
 H       -10.1335881640       -3.7123120193       -1.0126559446
 H       -10.2454495585       -4.8606639858        0.2212472168
 H        -8.6798588575       -4.5521165792       -0.8129600100
 H        -7.4017539181        1.1842121775        2.6967320878
 H        -7.5725486324       -0.0719076338        3.5947433853
 H        -7.2974178891        1.4538885992        4.4408823267
 H       -10.3291804713        3.2391173061        4.2034131956
 H        -8.7072266462        3.0212948852        4.7471818655
 H        -9.9480610739        2.3073055667        5.5263125879
 H       -14.8172505015        2.7535671418        0.6738119202
 H       -15.2993892918        1.2468663883       -0.0753413833
 H       -15.4305554138        2.7579089669       -0.9621800792
 H       -12.7361325834        1.1272622773       -2.7029512378
 H       -14.0647015077        2.0832867657       -3.1738462611
 H       -14.3261519359        0.6405706049       -2.3403481429
 H       -12.7637405292        6.8291346274        2.6718723266
 H       -12.1676600110        8.2296813147        3.1318614272
 H       -11.0878540382        6.9518875021        2.3544551955
 H       -13.2569595003        9.9725366425        0.2990856350
 H       -12.9779694762        9.9493304638        2.2360243177
 H       -14.2058194980        8.8746049312        1.4370659975
 H        -6.9467905765       10.4741068705       -0.1843650354
 H        -8.0545674595       10.9999186338        1.0230082773
 H        -6.5849080446       12.0072960350        0.7358462189
 H        -7.8264831041       14.2430463439        0.1506353200
 H        -8.9732672749       13.2604039438        1.1027035894
 H        -9.3824425887       13.9068101656       -0.5477531813
 Na       -9.8865775221        1.8234531634       -0.9997398454
