117

 C        -6.5806336466       13.9302563642       -2.1866745014
 C        -6.9113760417       12.5304239888       -1.7222059523
 O        -6.2132461207       11.6579123323       -2.1304688699
 C        -7.9719043721       12.2942254666       -0.6691452939
 C        -9.1422494913       11.5495558341       -1.5435421277
 O        -9.7925783112       12.3669475776       -2.1769889505
 C        -9.4888645463        9.9862887186       -1.3209403135
 C       -10.7779568072       10.0539366994       -0.4382120486
 C       -10.9122501692        8.5711027793        0.3256346718
 O       -10.1438947610        7.6938617125        0.1554843483
 C       -12.3773914680        8.2322924611        0.9148855593
 C       -12.9846778720        7.2568593893       -0.0577074548
 O       -13.8168116891        7.6305170572       -0.7991241950
 C       -12.5604376938        5.7586180445        0.0308527548
 C       -13.2787272350        4.8541066699       -1.0354741023
 C       -12.6129871184        3.4024575658       -1.0174223072
 O       -11.3926383845        3.4220375107       -0.8026584048
 C       -13.4475108734        2.1434951445       -1.0284732216
 C       -12.4193535706        1.1003664297       -0.1811903203
 O       -11.6532050640        0.3840884583       -0.7965038409
 C       -12.4660045088        1.2567245158        1.4842532091
 C       -11.4006793201        2.1296851299        2.2156364440
 C        -9.8752293542        1.6545884347        2.1574578655
 O        -9.1408608972        1.5862608310        1.2040438057
 C        -9.2875471000        1.3401050836        3.6508966060
 C       -10.2559901961        0.1495174778        3.9492015214
 O       -11.3812578179        0.1424807339        4.4387389125
 C        -9.6193134223       -1.3463633880        3.6008585624
 C       -10.6479969492       -2.3238468571        2.9524360099
 C       -10.6822910355       -2.6574762340        1.4083471379
 O       -11.6686584282       -2.7799143359        0.7788829337
 C        -9.2377007459       -3.1940720729        0.8405891831
 C        -8.4120864228       -1.9652916902        0.2939543734
 O        -7.6797188510       -1.2451556833        0.9750461320
 C        -8.5695442803       -1.6354792223       -1.2172052970
 C        -7.6050241351       -0.6327936253       -1.8016933278
 C        -8.2356610335        0.2184984704       -2.8683388901
 O        -9.3205324285        0.0123056882       -3.2704506003
 C        -7.4290474408        1.4825181403       -3.3864409879
 C        -6.9078505397        2.2476988563       -2.1616281900
 O        -7.6818032931        2.6327013932       -1.2534132864
 C        -5.4865447621        2.4833682577       -1.6983181240
 C        -6.3395089546        0.8886152120       -4.3262536285
 C        -8.4703880830        2.4007815574       -4.0199891371
 C        -8.4157571204       -3.8667205275        1.9166950136
 C        -9.4567529300       -4.2297461336       -0.3868608663
 C        -7.6993740450        0.9417717617        3.6898106861
 C        -9.5640956563        2.6232442258        4.5100775910
 C       -14.7801201935        2.4166449135       -0.4008793333
 C       -13.7187075825        1.5319379560       -2.4549886745
 C       -12.0117227035        7.6148127903        2.2475002681
 C       -13.2998707609        9.4938278645        0.9651826619
 C        -7.1147173948       11.3941435140        0.4308987612
 C        -8.5841910902       13.5617471571       -0.0226126766
 H        -7.2229787543       14.7412047853       -1.9331272049
 H        -6.6313921190       13.9277713839       -3.3223770520
 H        -5.6554539892       14.3925048495       -1.9454261401
 H        -8.6776025623        9.5285308352       -0.7203716405
 H        -9.6798767205        9.4520949139       -2.2919151421
 H       -11.6362935847       10.2680872141       -1.0403775135
 H       -10.5113485745       10.7328147418        0.4034225093
 H       -12.6383627828        5.4428933189        1.0331211606
 H       -11.4668026185        5.5577575273        0.0649724317
 H       -13.1927743176        5.4843809392       -1.9651533279
 H       -14.3289340129        4.7434624816       -0.7244253955
 H       -12.4780292622        0.2195448819        1.8313955416
 H       -13.3748569887        1.8739217068        1.6470554914
 H       -11.6120946789        2.2054719935        3.3307334642
 H       -11.4301543874        3.1633724182        1.8406543572
 H        -9.2242099620       -2.0529008218        4.3344251852
 H        -8.9673963109       -1.1240159258        2.7595028406
 H       -11.6458316154       -2.0297183276        3.2734987585
 H       -10.6130854823       -3.2241679653        3.5279873830
 H        -9.5090867840       -1.0801959027       -1.3976835477
 H        -8.6410598059       -2.4968023448       -1.8078056995
 H        -6.6844875424       -0.9738362651       -2.0735759382
 H        -7.2494107738        0.0081423928       -1.0705441328
 H        -4.9197670247        2.2624521651       -2.5469043095
 H        -5.2698060992        1.8485019329       -0.8777728760
 H        -5.4069309712        3.5012281109       -1.2334103139
 H        -5.9091173212        1.4990761284       -5.1496052637
 H        -6.7769286511       -0.0512644189       -4.8490610368
 H        -5.5735641666        0.7178754007       -3.4893663390
 H        -8.2785273781        3.3608352288       -4.5274534328
 H        -9.1512284567        2.8322408429       -3.2954419405
 H        -9.0506711818        1.8787658481       -4.7589606347
 H        -7.4306843927       -4.4042844616        1.5553781239
 H        -9.0630417603       -4.6507082294        2.4278619827
 H        -7.9974106025       -3.0771222655        2.5924557303
 H       -10.0289716550       -3.8936827486       -1.2308656744
 H       -10.1158020621       -4.9672414350        0.0522262257
 H        -8.3863135790       -4.4747091024       -0.7211381065
 H        -7.2791577440        1.1603195372        2.7373234591
 H        -7.3528679607       -0.1050055688        3.7349660812
 H        -7.1432127684        1.4657971717        4.4941324803
 H        -9.9234699727        3.4305604271        3.9564764268
 H        -8.6767218493        2.9576560149        5.1449347001
 H       -10.3362159475        2.5233606143        5.2238394691
 H       -14.6247358761        3.0035638029        0.5176667687
 H       -15.4527153533        1.5249348334       -0.1549551307
 H       -15.4260194359        2.9799769093       -1.0770964401
 H       -12.9202319464        1.4056118081       -3.1694767767
 H       -14.4809335946        1.9390693973       -2.9746549478
 H       -14.1744729755        0.4966100966       -2.3395143838
 H       -12.7818142911        7.2817609282        2.8562018968
 H       -11.5749461484        8.4200710026        2.7577891108
 H       -11.2881701937        6.7364264999        1.9922789576
 H       -13.0931021926        9.9430628365        0.0973898629
 H       -13.1598564892        9.9138379524        2.0025975607
 H       -14.3160374027        8.9864937138        0.8782773968
 H        -6.6944896632       10.4644415036        0.0281139673
 H        -7.9898477727       11.1322864018        1.0762137935
 H        -6.4074652529       11.9416902820        0.8319313409
 H        -7.8738955078       14.0683706629        0.5265497772
 H        -9.4832860935       13.2946649297        0.6115621607
 H        -8.8544546846       14.1745648234       -0.8387773252
 Na       -9.8372840127        1.7058622888       -0.9430662087
