117

 C        -8.2728891742       -7.0556219282        2.7880659871
 C        -7.5332007624       -5.7527981608        3.0802932276
 O        -6.4132560309       -5.7461112829        3.5487197891
 C        -8.1807960644       -4.2379697893        2.7304131791
 C        -9.5294870745       -4.3531027005        1.8877699112
 O        -9.7261611065       -5.2094964968        1.0318454259
 C       -10.5197687085       -3.2243398728        2.1969956305
 C       -11.7940966198       -3.3703049898        1.3311604745
 C       -12.2995206022       -2.1227222719        0.7199490171
 O       -11.7427605143       -1.5561068606       -0.2509863183
 C       -13.2142023961       -1.1850121472        1.5486062479
 C       -12.2768480797        0.1505005616        1.9042388553
 O       -11.9652689303        0.2715801806        3.0489986858
 C       -11.8414910634        1.0918440203        0.7882305501
 C       -10.2839325570        1.2271585655        0.5650571538
 C        -9.9666984740        2.3254640497       -0.4218806411
 O        -9.7621850894        3.4244755806        0.0966553224
 C        -9.8876658408        1.9851829390       -1.9708121640
 C       -11.2133204442        2.6837632451       -2.6741248542
 O       -12.2286616026        2.7738214664       -1.9767420888
 C       -11.2275108369        3.1151383524       -4.1033422752
 C       -11.9366925773        4.4430159344       -4.3226391064
 C       -11.3306504368        5.4652034983       -3.2789242918
 O       -10.2116666074        5.2227753006       -2.8478191064
 C       -12.0637033282        6.6293462704       -2.6095140991
 C       -11.0170947294        7.7375537896       -2.1851010558
 O       -10.1823975136        7.6070024378       -1.3474681535
 C       -11.1348581036        9.0635129501       -2.8468533317
 C        -9.9300562723        9.9973610288       -2.5226761963
 C       -10.0531091171       10.6573069305       -1.1237158250
 O       -11.0854217103       10.6807620154       -0.5209371850
 C        -8.8345284268       11.5340825737       -0.5647792687
 C        -8.3065111226       10.4175842410        0.3532319227
 O        -7.6063517584        9.5670685571       -0.2529705467
 C        -8.7656096479       10.1644134095        1.8187282732
 C        -8.0446476009        8.9536020650        2.4420124636
 C        -7.9021553985        7.8342096892        1.5035267403
 O        -8.9047704867        7.1884510944        1.2011561993
 C        -6.3663111681        7.2775716934        1.2133332475
 C        -6.2080285074        7.2880070202       -0.3410399694
 O        -6.7865675097        6.5530358407       -1.1527117629
 C        -5.1863375789        8.2608728883       -0.9095590411
 C        -5.2576751316        7.9884501831        1.9843240697
 C        -6.4211630579        5.7778761771        1.5423938972
 C        -7.7870069723       12.0336698197       -1.5905182197
 C        -9.4427348053       12.6692982860        0.1127522821
 C       -13.1762094655        7.2075604698       -3.4903137514
 C       -12.7096276915        5.9604286632       -1.3626651815
 C        -8.4021103152        2.3973442768       -2.4814126828
 C       -10.0850384391        0.4753618285       -2.2120650208
 C       -14.4268532135       -0.7253327566        0.6597366597
 C       -13.6909715781       -1.7546443787        2.9204673060
 C        -8.3169714100       -3.5907193093        4.0466935021
 C        -7.2682896118       -3.3757919478        1.9021254336
 H        -8.8871823202       -7.1492597096        1.9067440861
 H        -8.9912821766       -7.2941361176        3.6289719153
 H        -7.5104938699       -7.7954911408        2.7255245365
 H        -9.9473192830       -2.3016765774        2.1437583830
 H       -10.8544874143       -3.4081148669        3.2935063174
 H       -12.5075674670       -3.8504276099        2.0029089170
 H       -11.4839932508       -4.1040881887        0.5191799737
 H       -12.1831135911        2.0402376902        1.1047193829
 H       -12.4141676486        0.7586496229       -0.0880869148
 H        -9.9647734605        0.2128216248        0.2316931220
 H        -9.8248591794        1.4723194520        1.5539808889
 H       -11.9250529630        2.3895322354       -4.4691641947
 H       -10.3013727998        3.0874722341       -4.5991924873
 H       -12.9842033686        4.3918409492       -4.0671798039
 H       -11.7339360859        4.7659395352       -5.3586770192
 H       -12.0642733405        9.4447479433       -2.6803612662
 H       -11.1102695855        8.9140966554       -3.9285866225
 H        -9.8773111909       10.7605119661       -3.2288208627
 H        -9.0083691579        9.3926797195       -2.5822978201
 H        -9.8361390043       10.0925656683        1.8610268272
 H        -8.4991834945       11.0904761917        2.4185767254
 H        -8.5996372124        8.5539429089        3.3040399922
 H        -7.0324904022        9.1389961804        2.7215206161
 H        -4.9137260888        9.0583648466       -0.2227378812
 H        -5.6674382984        8.6348546029       -1.8666143897
 H        -4.3417821275        7.8224408895       -1.3504863850
 H        -5.5483043430        7.8868567280        3.0557391786
 H        -5.0856911201        9.0481682674        1.8111084265
 H        -4.3298628334        7.5187750806        1.7530963139
 H        -6.5102468972        5.4458365448        2.5610737135
 H        -5.5599650778        5.3589367039        1.0782191219
 H        -7.3328100066        5.3263263864        1.1180979537
 H        -6.9463461252       12.5059115990       -1.1153369095
 H        -8.3531795889       12.4306885269       -2.3669265758
 H        -7.3851432999       11.1226427111       -2.0614144311
 H        -8.9929602938       12.8801801610        1.1022434150
 H       -10.5129346903       12.7985458922        0.2759417332
 H        -9.2226223721       13.5350796363       -0.5148200486
 H       -13.9410091208        6.4879659456       -3.7012237859
 H       -12.8611722296        7.4965990209       -4.4903039012
 H       -13.5941329938        8.1528352561       -3.0831839607
 H       -13.2660748257        5.1641412622       -1.6481649160
 H       -13.5025370615        6.6144276533       -1.0361074481
 H       -12.0085324411        5.6947668507       -0.6589333488
 H        -7.9922621262        1.6721938712       -3.0784365996
 H        -7.6794622437        2.3846517952       -1.6205100677
 H        -8.6057889672        3.3554845496       -2.9051720064
 H       -11.0095966241        0.1342733650       -1.7748602375
 H        -9.2668650644       -0.0122755239       -1.6615342752
 H       -10.1256344693        0.1443733020       -3.1871062498
 H       -15.2322007379       -1.4086851087        0.7718539149
 H       -14.1630080212       -0.6408573872       -0.4125103248
 H       -14.8494593360        0.2375411416        1.0338803801
 H       -14.3221492785       -2.6311335393        2.8927182547
 H       -14.2089512662       -0.9015704488        3.4052634786
 H       -12.7688815387       -2.0564616324        3.3819629617
 H        -9.0519114165       -4.0216346294        4.7310516530
 H        -8.7218074238       -2.5560654254        4.0541753065
 H        -7.4345736792       -3.8077322404        4.6262427208
 H        -6.4138969299       -2.8896938185        2.4551162825
 H        -7.8365285903       -2.4458732588        1.5865981913
 H        -7.0073168119       -3.8791744412        0.9822724164
 Na       -9.0842334925        5.6708713056       -0.8008228262
