117

 C       -13.6327351803        4.5254999506       -7.2580511747
 C       -12.3034377502        4.2182585459       -7.9307917070
 O       -11.5943860863        5.1882466936       -8.1212473841
 C       -11.8398631679        2.8408221461       -8.4282403382
 C       -10.6784151343        2.3591376401       -7.4337351684
 O       -10.8179965595        1.4197672301       -6.6927871971
 C        -9.4760662661        3.3138354388       -7.4006701974
 C        -8.4663664833        3.0655722009       -6.2914527227
 C        -9.1273050622        3.3018583484       -4.8552181560
 O       -10.1569330241        3.9244335849       -4.7051941477
 C        -8.2921382836        2.6482830084       -3.6268628581
 C        -7.8435603026        3.7151347759       -2.6450099857
 O        -6.6824916872        3.9625308054       -2.3296980964
 C        -8.9270042913        4.6187199301       -2.0089129698
 C        -8.3785018640        5.9566213245       -1.4517220464
 C        -7.8290834973        5.7199869081       -0.0125368591
 O        -8.1556914365        4.8066384391        0.7118531532
 C        -6.8180530467        6.8774333802        0.6722014617
 C        -7.7788133968        7.3170822266        1.7856414961
 O        -8.9754498719        7.1785944737        1.5786271722
 C        -7.3206044411        8.0068199837        3.1685043884
 C        -8.5581936866        8.0477586052        4.2021067636
 C        -9.0388461647        6.5844975089        4.5010626840
 O        -8.2452234649        5.6617740475        4.2576579851
 C       -10.5556536744        6.4166012055        4.9221308329
 C       -11.0993549434        4.8948450156        4.7933526534
 O       -10.7205697613        4.2120633111        3.8866181975
 C       -12.4624926852        4.5446121517        5.4744958857
 C       -12.9228167503        3.1178220052        4.9364738254
 C       -13.2039749219        2.9664407066        3.4690890695
 O       -13.2460051760        3.9167557979        2.7014034968
 C       -13.5148902144        1.4550237925        2.9683899453
 C       -12.1713076302        0.6735160944        2.9188415452
 O       -11.5609995154        0.4674125079        3.9374279171
 C       -11.4790752403        0.2863755988        1.5473159314
 C       -10.0184929241       -0.0980974077        1.6548626026
 C        -9.0169765990        1.0263051102        1.6711641830
 O        -9.3629293965        2.1637578150        1.5035181444
 C        -7.5379124561        0.7973668479        2.0346969570
 C        -7.2665385503        1.2015891197        3.4811320984
 O        -7.4690215803        2.3358047140        3.8864791586
 C        -6.8434618246        0.1474577416        4.5614912450
 C        -7.1104251941       -0.6626563480        1.7201385632
 C        -6.7250108609        1.7089026464        1.1356701243
 C       -14.4593263872        0.6770767409        3.8982007891
 C       -14.0743323210        1.4658182693        1.5220144052
 C       -10.8945815560        7.0010751827        6.2454900248
 C       -11.4320285747        7.0650222833        3.7775634336
 C        -5.5245288606        6.2365369103        1.2450793968
 C        -6.5131403229        8.0992129265       -0.2006640246
 C        -9.3966396166        1.7763073740       -2.9365161816
 C        -7.0499364520        1.7120131235       -3.9316657254
 C       -12.9702358874        1.8062199379       -8.3113079120
 C       -11.2014030560        2.8871756591       -9.8372366200
 H       -13.5178666343        5.4617423012       -6.7232873366
 H       -14.0672606798        3.5878598596       -6.7487891710
 H       -14.4136671547        4.7024422428       -8.0026890809
 H        -9.9532922844        4.3336878502       -7.5207957722
 H        -8.8775151094        3.1868518638       -8.3102282559
 H        -7.6734708491        3.8232418815       -6.3552846681
 H        -8.0013769086        2.0410930330       -6.3226823290
 H        -9.5172001825        4.2227633408       -1.2128413038
 H        -9.6581130957        4.8741160001       -2.7282123182
 H        -9.1789183167        6.6864552228       -1.3424378688
 H        -7.6230049463        6.3612351076       -2.1350542702
 H        -6.9809251609        9.0419299940        2.9674970437
 H        -6.5313574649        7.4478312361        3.5730227354
 H        -9.3751026211        8.5408676083        3.7307246535
 H        -8.3696594091        8.5707051356        5.1679909104
 H       -13.2269279590        5.3685139786        5.3076252626
 H       -12.2573686805        4.4937951538        6.5615079224
 H       -13.7497329865        2.7462421978        5.5227105194
 H       -12.0949109653        2.4666708584        5.1774726064
 H       -11.4046492325        1.1437611825        0.8504470468
 H       -12.0274205621       -0.5564650110        1.1302206620
 H        -9.7898118894       -0.7838367045        0.7915714279
 H        -9.8673697891       -0.6094912353        2.5958404713
 H        -6.4883742583        0.7159588486        5.4188954485
 H        -6.1167183639       -0.5997711063        4.1819148739
 H        -7.6864870926       -0.5616727558        4.8155443256
 H        -7.5497391359       -0.8157226050        0.6761989731
 H        -7.4782050646       -1.4743406392        2.4087754385
 H        -6.0715652426       -0.7100090914        1.7498495306
 H        -7.1082323355        2.8099285092        1.1567317021
 H        -6.8956649651        1.4246353964        0.1351587817
 H        -5.6321598994        1.5168598623        1.2273619235
 H       -14.2840278574        0.9403926568        4.9503793773
 H       -14.3244320583       -0.4388101411        3.8159076884
 H       -15.5099151294        0.9581191470        3.6295745204
 H       -15.1046426648        1.9069984220        1.4931468316
 H       -13.9754953881        0.5464958917        1.0261104575
 H       -13.4428006956        2.2447080252        0.9696921094
 H       -10.5994181889        8.0377324060        6.2213977872
 H       -10.2321313051        6.5835960767        7.0415389119
 H       -11.9484903263        6.9791724880        6.3743074776
 H       -10.8716348757        6.8511827239        2.8516157695
 H       -11.3800883573        8.1147041731        3.7476330831
 H       -12.4098540499        6.6187694545        3.6673851013
 H        -5.0493753830        6.9586178413        1.8425475820
 H        -4.9154947922        5.8135315438        0.4921385388
 H        -5.7126555681        5.2890527504        1.8042115777
 H        -5.6630842588        7.9298331082       -0.8213380873
 H        -6.2025854955        8.8502167434        0.4641127744
 H        -7.3152775270        8.4402424863       -0.8625849398
 H        -9.4047692971        0.8100825463       -3.3783135759
 H       -10.3955629944        2.2532277729       -2.9745287061
 H        -9.2118721485        1.5997143626       -1.8523306647
 H        -7.4835101649        0.8486929005       -4.3511176256
 H        -6.4980793243        1.4974704050       -3.0242998913
 H        -6.2591901613        2.0475952024       -4.5766960102
 H       -13.3294143916        1.7598375903       -7.2930515206
 H       -12.6061915390        0.7807380888       -8.4094649616
 H       -13.7100541350        1.7932407133       -9.0369307076
 H       -10.4286682078        3.6454671304       -9.7339152100
 H       -11.8910452499        3.0836928713      -10.6046807490
 H       -10.8049715641        1.9305651582       -9.9095307442
 Na       -8.7444967125        3.8324816833        2.8545138085
