117

 C        -6.5090457818       13.8692819465       -2.6593378623
 C        -6.7859042207       12.4920710307       -2.0343032991
 O        -6.4546367312       11.4786131741       -2.5358026152
 C        -7.7795375907       12.2141949980       -0.8326499081
 C        -8.9602102511       11.5285305028       -1.5424735262
 O        -9.4718086700       12.0527027020       -2.5601670486
 C        -9.2066094212       10.0627241930       -1.2079180984
 C       -10.6957187654        9.8475497272       -0.9733063215
 C       -10.9758804813        8.7104916644        0.0348251910
 O       -10.1214866957        7.8822638982        0.2713275405
 C       -12.3325256938        8.5190637570        0.6999160495
 C       -12.9475533061        7.3914294666       -0.2177512304
 O       -13.5585495679        7.5554315829       -1.2072703215
 C       -12.6355858427        5.8896961764        0.1769017502
 C       -13.2986587320        4.9584893638       -0.9502758274
 C       -12.5481305093        3.6300636931       -0.9405808454
 O       -11.3658775709        3.5668358150       -1.2467025299
 C       -13.3388111450        2.1310261415       -0.8469963947
 C       -12.4393944683        1.2057722649       -0.0472298943
 O       -11.6932658299        0.4924907224       -0.7336998275
 C       -12.3366907674        1.1056619379        1.5009815818
 C       -11.4735642662        2.2596410483        1.9979143597
 C       -10.0720614766        1.8907016860        2.1429617127
 O        -9.2658082584        1.8928422381        1.2316628962
 C        -9.5332607530        1.3376879192        3.5863299017
 C       -10.2612183280        0.0365353526        4.0891674906
 O       -11.2700013071        0.0735314165        4.7327151432
 C        -9.5903403476       -1.3468260965        3.7388452877
 C       -10.6736098230       -2.4278156653        3.2553212991
 C       -10.6039742488       -2.6235732539        1.7224686626
 O       -11.3893576099       -2.2139450689        0.9555702439
 C        -9.3402558630       -3.4307094440        1.0762431096
 C        -8.6697674560       -2.1813862076        0.3796252474
 O        -8.2552092946       -1.3274052828        1.1507378481
 C        -8.7329029775       -1.9180126438       -1.1017043686
 C        -8.1018664946       -0.4557195157       -1.3737283712
 C        -8.4779119679        0.2282140585       -2.7305451406
 O        -9.4540919775       -0.0276321385       -3.3061703657
 C        -7.4307067659        1.3242310843       -3.2659926163
 C        -6.7647506336        2.0055303380       -1.9278188789
 O        -7.5667962621        2.4490145595       -1.0957032639
 C        -5.2066704474        2.2015981239       -1.8091416053
 C        -6.4398599466        0.4063908231       -4.1213103227
 C        -8.1517575973        2.4064302315       -3.9873285080
 C        -8.3518646701       -4.1088752244        2.0796032564
 C       -10.0021067535       -4.4037940551        0.0988779801
 C        -7.9999293791        1.0141840051        3.3663933108
 C        -9.7158656998        2.3628043103        4.6834686151
 C       -14.7767095656        2.1626830355       -0.2768277655
 C       -13.2901653993        1.8269987725       -2.3445395572
 C       -12.1741097613        8.0405040540        2.1894513386
 C       -13.1968071856        9.8511460219        0.6553080846
 C        -7.1514970766       11.3736349160        0.3625778360
 C        -8.2532417066       13.5641150006       -0.1702239139
 H        -7.4554284265       14.3765185840       -2.8286891725
 H        -5.8050371626       13.8153439395       -3.5899545258
 H        -6.0718598252       14.6451840361       -1.9766044833
 H        -8.6307004297        9.7276345020       -0.4228791687
 H        -8.7526786284        9.5904400528       -2.1039788615
 H       -11.0828818944        9.5956254469       -1.9655482321
 H       -10.9999854550       10.7501856243       -0.4311711398
 H       -12.8405735558        5.6045276764        1.2468400684
 H       -11.5312575385        5.7244529160        0.2021462412
 H       -13.0105133491        5.3150838272       -1.9630094685
 H       -14.4257015502        5.0320097302       -0.9748278916
 H       -11.9806930227        0.1390612156        1.8376295691
 H       -13.1846790225        1.4829587418        1.9239628033
 H       -11.9631160331        2.5047778190        2.9122501744
 H       -11.4505459905        3.1883254064        1.3548950060
 H        -9.1848371985       -1.6853392632        4.6769968633
 H        -8.8420700711       -1.3950540683        2.9738106027
 H       -11.6710628085       -1.9772999194        3.4251995691
 H       -10.8006590358       -3.4367218982        3.6451169331
 H        -9.7889697941       -1.9324088367       -1.3101533008
 H        -8.2521742722       -2.6985588325       -1.7727944061
 H        -7.0226995324       -0.5304983415       -1.1736824198
 H        -8.3699916448        0.2801529006       -0.5248568988
 H        -4.9138235379        2.2828640369       -2.8527283082
 H        -4.6890896969        1.4796595282       -1.2307584046
 H        -5.0963451890        3.2241658738       -1.3437772340
 H        -5.5394697600        0.9220754805       -4.2755676169
 H        -6.9109418881        0.0184996566       -5.0322033200
 H        -6.1106472961       -0.4134633468       -3.5046340015
 H        -7.4782576491        3.2075098342       -4.2886095559
 H        -8.6479963898        3.1248760988       -3.2638176111
 H        -8.6550831856        2.2498197155       -4.9327266190
 H        -7.3498196159       -3.7693512657        1.9106473069
 H        -8.3057550561       -5.1403593800        2.0838736322
 H        -8.4896198354       -3.7158402149        3.0324997916
 H       -10.8378978501       -3.9857462038       -0.2879661466
 H       -10.3984036643       -5.2439813248        0.6430871709
 H        -9.2916326209       -4.6955676633       -0.7017264387
 H        -7.7966447819        0.5842415415        2.4519568364
 H        -7.5085233140        0.4281397434        4.1830890902
 H        -7.3700503015        1.9293343893        3.4331130377
 H        -8.8218063856        2.7367120761        5.1423044696
 H       -10.2213192389        1.8544865648        5.5442242730
 H       -10.2789966804        3.2535529767        4.4092267504
 H       -14.9292897309        2.5356264565        0.6814337091
 H       -15.2752269798        1.2004747507       -0.3643300122
 H       -15.3835183280        2.6978195632       -0.9864639996
 H       -12.2949306657        1.8766960414       -2.7385834157
 H       -13.9104546591        2.3912490125       -2.9946204160
 H       -13.6083710122        0.7683357533       -2.6669832521
 H       -13.0608013146        7.8330917572        2.6671838741
 H       -11.6513696138        8.8394745975        2.6282967962
 H       -11.4334707540        7.1385401419        2.2504539231
 H       -13.6911788114        9.7376251699       -0.2038920483
 H       -12.4719266433       10.6828428146        0.8181886034
 H       -13.9379056500        9.7712181750        1.5526127267
 H        -6.5120366517       10.5053046403       -0.0060563258
 H        -7.9657450192       11.1219668988        1.0648768992
 H        -6.4780083388       12.0011510901        0.8046578267
 H        -7.3362958833       14.1644303249       -0.0529696993
 H        -8.8065982744       13.3875007713        0.7945659028
 H        -8.9469385196       14.0643620223       -0.8505728526
 Na       -9.8494306239        1.8571597898       -0.9187847025
