117

 C        -6.2306779907       13.7114777763       -3.1270057182
 C        -6.4819029009       12.4641088606       -2.4021369326
 O        -5.8416727238       11.4803094553       -2.6582970013
 C        -7.5569001484       12.1626681003       -1.2129311683
 C        -8.8120789908       11.4745943896       -1.7416729976
 O        -9.7937650560       12.0915261872       -2.1975388694
 C        -9.1167851496       10.0430694522       -1.3103516931
 C       -10.5822922072        9.6028930660       -1.2763861680
 C       -10.9307881126        8.6892414761       -0.0878696780
 O       -10.1180325069        7.9565311479        0.4686952374
 C       -12.4311508108        8.6457499068        0.5039777011
 C       -13.0728012178        7.4581664048       -0.3849503360
 O       -13.6277206316        7.6527003720       -1.4347817259
 C       -12.6867994199        5.9522841713        0.0702407427
 C       -13.4333110267        4.8583094453       -0.6220856147
 C       -12.5069304092        3.7549904487       -0.8898557350
 O       -11.3400614600        4.0836707522       -1.1782900506
 C       -13.1195574735        2.3161539224       -0.8668340926
 C       -12.2583359141        1.2749042091       -0.0908885740
 O       -11.3352233308        0.6755677717       -0.6042497847
 C       -12.5475266087        1.0692843944        1.4328272692
 C       -11.7525739998        1.9210895813        2.3998618665
 C       -10.3052225485        1.6958817548        2.3670903955
 O        -9.6679125303        1.8568811025        1.3073275804
 C        -9.5392170325        1.2788479381        3.7029623241
 C       -10.2931366393        0.0219420393        4.1453819287
 O       -11.4844466021        0.1723222818        4.3626551332
 C        -9.7098916456       -1.4043926436        4.0850855363
 C       -10.8067731546       -2.6341768556        3.7447356858
 C       -10.6702589915       -2.5398574178        2.1611786731
 O       -11.4573590809       -1.8124829969        1.5901613581
 C        -9.6594111739       -3.4105168950        1.2730117100
 C        -8.8295937943       -2.3200990170        0.5211621979
 O        -8.0085478474       -1.7727703635        1.2044613023
 C        -9.0883004405       -1.9270108169       -1.0146577538
 C        -8.0138408614       -0.9514268942       -1.5240452223
 C        -8.5104799618        0.1066394109       -2.6168237167
 O        -9.6889569710        0.2675694209       -2.8646967740
 C        -7.3384713786        1.0498700323       -3.2561816739
 C        -6.7464346866        1.8686376026       -2.0669558879
 O        -7.4211791797        2.2862297324       -1.1616503484
 C        -5.1906350389        2.1109554466       -1.9390834395
 C        -6.2312728786        0.2186179951       -3.9691288765
 C        -7.9348872149        1.9783268293       -4.1893757147
 C        -8.6101006023       -4.1817880205        2.1311086869
 C       -10.3005498537       -4.3427749275        0.2560620086
 C        -8.0343047847        1.3042590225        3.4507068393
 C        -9.8660548269        2.3478473419        4.8252346877
 C       -14.5040771615        2.3147818982       -0.2448447488
 C       -13.2619623851        1.6322163337       -2.2804839120
 C       -12.3591645602        8.4511201916        2.0493049385
 C       -13.3107426303        9.9775441111        0.2761396659
 C        -6.8379451770       11.5005649007        0.0187612742
 C        -8.1803911231       13.5536651771       -0.7255721418
 H        -6.9923820094       14.2239840398       -3.5110585872
 H        -5.3593594822       13.6048066641       -3.7367533533
 H        -5.9039082868       14.3784076451       -2.3759647397
 H        -8.4847008323        9.7837669299       -0.4570131162
 H        -8.5967358344        9.3656073538       -2.0504202332
 H       -10.6202403573        8.8408605864       -2.0720706146
 H       -11.2571227850       10.4032770470       -1.2622384299
 H       -12.6571556245        5.9521581295        1.1738339366
 H       -11.6809797884        5.8063086110       -0.2099706564
 H       -13.8655553397        5.2753594104       -1.4972615829
 H       -14.3665616237        4.6290151929       -0.1384081563
 H       -12.2725071376       -0.0435453480        1.6618121710
 H       -13.6272291694        1.2408731347        1.5541115885
 H       -12.0169478021        1.6275421415        3.3724117765
 H       -12.1453884570        2.9553178200        2.1779520899
 H        -9.5731195098       -1.6446767304        5.1776213013
 H        -8.8046232905       -1.7079745941        3.5097600544
 H       -11.8382673569       -2.3206200114        4.0568003444
 H       -10.4475421443       -3.6191966827        4.1151549353
 H       -10.0648553635       -1.5556219313       -1.2370054303
 H        -8.9812999105       -2.9532962309       -1.5081537817
 H        -7.1256860932       -1.5846526880       -1.8068869836
 H        -7.8111348997       -0.4252422037       -0.5152367373
 H        -4.9088539528        3.0580874039       -2.4878637317
 H        -4.6443532287        1.2119218429       -2.2304447971
 H        -5.0832700248        2.4460759592       -0.8783287338
 H        -5.3051792217        0.0543698933       -3.4356067370
 H        -6.2501631391        0.4638093983       -5.0452950254
 H        -6.6407541560       -0.7478095038       -4.1150037089
 H        -7.3107093585        2.5162439061       -4.8001327774
 H        -8.6461576503        2.8048561875       -3.8038484561
 H        -8.4083433102        1.4381341623       -4.9751586165
 H        -7.6700221436       -4.4502550583        1.5648553758
 H        -8.8708698318       -5.1563652466        2.6246984318
 H        -8.2958016496       -3.5190998762        3.0067816915
 H       -10.5989155150       -3.7618157712       -0.6041694744
 H       -11.1229164894       -5.1116105649        0.5332829315
 H        -9.4650334165       -5.0672833754       -0.0461338434
 H        -7.7526351640        0.7356196550        2.6305013319
 H        -7.5084001320        0.9786034186        4.3889160938
 H        -7.5845520402        2.2677804271        3.1648384578
 H       -10.1586636280        1.9283159959        5.7946266701
 H       -10.6274544637        3.0929096803        4.5973765487
 H        -8.9359325141        2.9531704801        4.8573986775
 H       -14.4701946245        2.8132145053        0.7290794700
 H       -14.7695780875        1.2763251976        0.0145166448
 H       -15.4203187681        2.7202530641       -0.7801658639
 H       -12.4402887307        1.0504913168       -2.5549774522
 H       -13.1636196397        2.3838101974       -3.0795527574
 H       -14.1157591546        0.9536539411       -2.5608678252
 H       -13.1175306735        7.7415679904        2.1927782581
 H       -12.4180342504        9.4343162947        2.5569952567
 H       -11.3102001737        8.1419944050        2.5401431472
 H       -13.1357285299       10.2779764941       -0.6306559425
 H       -12.8697239269       10.6040979981        1.0592463297
 H       -14.3722585379        9.6972968992        0.4431578857
 H        -6.3331017225       10.4490849719       -0.1622756338
 H        -7.4071861595       11.5775657923        0.9239379138
 H        -5.9939265341       12.1828547452        0.1595504827
 H        -7.4888971441       14.0680231456       -0.0007898906
 H        -9.0260270669       13.3024172328       -0.1392520787
 H        -8.6397086600       14.1609754105       -1.4586909794
 Na       -9.6289300810        2.3464501270       -1.1689842622
