117

 C        -6.2094045106       13.7115508376       -3.2921196594
 C        -6.3107796669       12.3481811902       -2.4913624845
 O        -5.6152682109       11.4278360094       -2.7549535246
 C        -7.5072117463       12.2976433217       -1.2985809966
 C        -8.8683547187       11.4304416877       -1.6894090172
 O        -9.8111122105       12.1007855079       -2.1254716126
 C        -8.9972872878        9.8412434470       -1.3907434338
 C       -10.4778195430        9.4714391038       -1.3970214339
 C       -10.9647247298        8.7880157981        0.0320769706
 O       -10.2245048372        8.0157064498        0.5511707146
 C       -12.4533937446        8.7341074468        0.3750879723
 C       -13.0390204016        7.5237277897       -0.3754606296
 O       -13.6802427272        7.5573253805       -1.3543866766
 C       -12.5799409770        6.1341087039        0.1011407723
 C       -13.4223649467        5.0387005170       -0.6456950283
 C       -12.5779274889        3.8083994226       -0.8773282342
 O       -11.4017053693        3.8517625189       -1.1484586818
 C       -13.1920549549        2.3180943202       -0.8168751276
 C       -12.2271856233        1.4039503863       -0.0229700542
 O       -11.1525642327        1.0059459971       -0.4732183885
 C       -12.6538775328        0.8904741032        1.4607976613
 C       -11.9378024587        1.8499621393        2.4394397379
 C       -10.2588116837        1.7053211206        2.3126874027
 O        -9.6139496407        1.8556517780        1.3336759954
 C        -9.5870781685        1.3499969398        3.6397601847
 C       -10.4801125473       -0.0687308501        4.0148740802
 O       -11.5627526921        0.0824107882        4.4477757068
 C        -9.6747506655       -1.3675533606        4.2395615702
 C       -10.6160007992       -2.5259085775        3.7882080132
 C       -10.8086399960       -2.5982831400        2.2531973064
 O       -11.5563556313       -1.8447533819        1.7719529698
 C        -9.7150343039       -3.3431451575        1.3436133163
 C        -8.7963519103       -2.2786424430        0.5650287755
 O        -7.7654099880       -1.8845475614        1.1021161105
 C        -9.0713359129       -1.8645328704       -0.8583458887
 C        -7.9866192395       -1.0587350731       -1.5846171752
 C        -8.4705030277        0.0557149172       -2.4109798577
 O        -9.5952910329        0.3806034981       -2.6512315720
 C        -7.3157755663        0.9298028295       -3.2472841857
 C        -6.6324645938        1.7970767147       -2.1075645013
 O        -7.4042967218        2.2362257562       -1.2419414889
 C        -5.1598535970        2.0995184336       -1.9219918071
 C        -6.2959423470       -0.0503903825       -3.8625837317
 C        -7.9999743196        1.8587724889       -4.3125766199
 C        -8.7592411704       -4.2477395872        2.1893705890
 C       -10.5360535987       -4.1929652814        0.3379758540
 C        -8.0714061274        1.2135424871        3.5173602820
 C        -9.9581168683        2.3346150141        4.8471590575
 C       -14.6463947158        2.2854368814       -0.3501955464
 C       -13.1365375057        1.8061406863       -2.2733663864
 C       -12.4974209372        8.3890816119        1.8669780104
 C       -13.2957729406       10.0847927026        0.0040567125
 C        -6.8611589681       11.5495411936       -0.1979447828
 C        -7.9933987676       13.7717651436       -0.8508070952
 H        -7.1518930030       14.1582939927       -3.5838567133
 H        -5.5487925304       13.4999825687       -4.1252306603
 H        -5.7405278425       14.5202128373       -2.8447212093
 H        -8.5061593913        9.6600249327       -0.4916762143
 H        -8.3391861668        9.2253936834       -2.0422797706
 H       -10.7587221038        8.7772038460       -2.1836180479
 H       -10.9885080137       10.4658032183       -1.3534612887
 H       -12.8635293541        6.2715162416        1.1665183281
 H       -11.5250485065        5.8940248208        0.0328860139
 H       -13.9858775318        5.4685067239       -1.4337702703
 H       -14.3007003904        4.8102118633       -0.0460568325
 H       -12.3034188123       -0.1259187253        1.5722816654
 H       -13.7385340669        0.8718193298        1.4376551429
 H       -12.1249956748        1.7892824893        3.4860731038
 H       -12.3815193196        2.7549952749        1.9653568595
 H        -9.5933996447       -1.6905525209        5.2739367248
 H        -8.7399954685       -1.4677269593        3.6497601509
 H       -11.6044865901       -2.2876411658        4.2410048673
 H       -10.1125063099       -3.4137854739        4.2143428691
 H        -9.8967749615       -1.1526469477       -0.6391907420
 H        -9.5328328634       -2.6961245779       -1.5006735785
 H        -7.6602902956       -1.7943461289       -2.3860076239
 H        -7.1019570224       -0.8815796213       -0.7929785158
 H        -5.1125507016        3.0104176934       -2.5377689870
 H        -4.5442729104        1.2671410400       -2.2380304455
 H        -5.0267603957        2.5878206909       -0.8819203338
 H        -5.6721797741       -0.5191210757       -3.2222980819
 H        -5.8239718547        0.3516102064       -4.6966495206
 H        -6.8725398083       -0.7909473775       -4.4150840121
 H        -7.1378689044        2.3902360234       -4.9329446853
 H        -8.6014130632        2.7165955145       -4.0185008351
 H        -8.4460496130        1.4618685490       -5.2139779605
 H        -8.2915087423       -5.0680173211        1.6163397519
 H        -9.1427761272       -4.6961917187        3.0724137408
 H        -8.0041005184       -3.6495650657        2.5882283472
 H       -11.2204003758       -3.5690824641       -0.2058615182
 H       -10.9870341456       -4.9839115510        0.8902005169
 H        -9.9154085682       -4.8324949311       -0.3460110479
 H        -7.8251612961        0.7116415058        2.6006342523
 H        -7.6314612544        0.7406206279        4.4131724163
 H        -7.5495406155        2.1554094157        3.3449711163
 H       -10.7164511542        1.9182765832        5.5058957787
 H       -10.2558628926        3.4313013637        4.5443793251
 H        -9.0259642194        2.5274425670        5.3250765090
 H       -14.7255222862        2.6688069126        0.6565764631
 H       -15.1557469859        1.2819401020       -0.3370878067
 H       -15.2913612506        2.9716006820       -0.9161099404
 H       -12.1592278422        1.4199883731       -2.6486602388
 H       -13.2611315927        2.5667723937       -2.9666088533
 H       -13.8079509052        0.9225524815       -2.5525424347
 H       -13.4709284889        7.9470997218        2.0806261699
 H       -12.1694927266        9.2690670561        2.3456942902
 H       -11.6121822011        7.7588986370        2.2293261282
 H       -13.1014642554       10.3172729518       -1.1069827763
 H       -12.8659044671       10.8241431934        0.6350144597
 H       -14.2996505516        9.7687278727        0.2511708993
 H        -6.4160394831       10.6259306006       -0.6245789770
 H        -7.6276766839       11.3686348912        0.6816218031
 H        -6.0820233750       12.0892934976        0.2199477205
 H        -7.3743055706       14.2571927953       -0.1478086197
 H        -9.0284783496       13.6189117405       -0.3328820509
 H        -8.3623079343       14.3458549319       -1.6890958307
 Na       -9.6019536336        2.3593988424       -1.1623672627
