117

 C        -6.3179914426       13.3770307477       -3.6454638157
 C        -6.4267002410       12.2438598415       -2.6661555648
 O        -5.5774210448       11.3637314276       -2.7672408838
 C        -7.4794149492       12.2601756650       -1.4603969314
 C        -8.8097858787       11.5286415860       -1.7849809873
 O        -9.7626975565       12.1909604535       -2.1179539618
 C        -8.8863020039        9.8701837881       -1.5065704630
 C       -10.3504918287        9.4795538622       -1.4496792132
 C       -10.7707087565        8.8727149062       -0.1295275539
 O       -10.0171934858        8.2798546547        0.6660845802
 C       -12.4383071903        8.8362771719        0.2133863043
 C       -13.0547788993        7.5027675813       -0.4287989836
 O       -13.8457781250        7.5968306865       -1.3620400361
 C       -12.6373629669        6.1238246179        0.0122922221
 C       -13.3649431537        4.9756556276       -0.6716163927
 C       -12.5291500716        3.7467295767       -0.8056906946
 O       -11.3209181362        3.8950289531       -1.0265473023
 C       -13.3148907497        2.2957084690       -0.9353634647
 C       -12.4570643383        1.3944979245        0.0553405909
 O       -11.3857104164        1.0681220334       -0.4144446203
 C       -12.8244870307        1.1461389020        1.5357205455
 C       -11.9216978579        2.1967410641        2.3076709928
 C       -10.4384000027        1.7370512193        2.4384600827
 O        -9.6062058741        2.0752418337        1.5723834852
 C        -9.8345580619        1.2808095537        3.7750393828
 C       -10.4687302717       -0.0534693551        4.3031613470
 O       -11.6595449710       -0.1923852848        4.6372679979
 C        -9.4558029171       -1.3395885607        4.3524757301
 C       -10.3546866029       -2.5663219220        3.9302676140
 C       -10.6602602293       -2.5343022308        2.4332843810
 O       -11.7408464034       -2.0153784762        2.0250828457
 C        -9.7282955374       -3.3761479537        1.4335583129
 C        -8.7685285154       -2.3936007359        0.6345998012
 O        -7.6641782046       -2.1879743138        1.0425815185
 C        -9.2793928771       -1.5233480797       -0.5308741483
 C        -8.1361816333       -1.5128575585       -1.6636876367
 C        -8.3877194973       -0.0930751493       -2.2991336414
 O        -9.4640633208        0.5446984370       -2.2389287311
 C        -7.1968159636        0.5944989200       -3.1360014433
 C        -6.6115108472        1.6420964966       -2.0776251814
 O        -7.2271993643        2.3697910870       -1.3526711824
 C        -5.0543558882        1.9513250842       -2.2559388489
 C        -6.2130422612       -0.3533963490       -3.8433514300
 C        -7.8096720751        1.5095029696       -4.1971846142
 C        -8.8821926508       -4.4604327262        2.0307548532
 C       -10.7403855974       -3.9439630291        0.4667718180
 C        -8.3130296897        1.0401148416        3.5548705580
 C       -10.1133913735        2.4393194437        4.7968250717
 C       -14.7781592035        2.3127585391       -0.5855026996
 C       -13.1548689090        1.9955385298       -2.4322093543
 C       -12.7963208073        8.9977744685        1.7188268230
 C       -13.1374461545       10.0697127736       -0.4596410850
 C        -6.5976311310       11.6068252696       -0.1929346182
 C        -7.7084597204       13.7505055100       -1.1366355623
 H        -7.3049202125       13.7491788951       -3.9648589864
 H        -5.6219699224       13.1525610485       -4.5286884229
 H        -5.8405622086       14.3481141190       -3.1863358185
 H        -8.3235702536        9.6537128263       -0.5451882833
 H        -8.3147814763        9.2614229136       -2.1801975523
 H       -10.5846922692        8.5576462435       -2.0753972427
 H       -11.0480553157       10.3158522351       -1.6359429037
 H       -12.8174221625        6.0557453822        1.1219447981
 H       -11.5439466998        6.1134499101       -0.2512365874
 H       -14.0477704791        5.1999319110       -1.5437973025
 H       -14.2092871446        4.8295937425        0.0251621462
 H       -12.5200552143        0.1486982329        1.9481412505
 H       -13.9042004228        1.1579154488        1.5289255431
 H       -12.4783030696        2.3680636448        3.3003861054
 H       -11.9999033244        3.1090729844        1.7107773026
 H        -9.4027454332       -1.5803578266        5.4102333799
 H        -8.5606619164       -1.2677088965        3.7744014678
 H       -11.2623140970       -2.1545986813        4.3102332007
 H       -10.0299015078       -3.5176366753        4.3344024453
 H        -9.4723404107       -0.5068720094       -0.1337980460
 H       -10.2019891976       -1.8655796941       -0.9198516365
 H        -8.3413069672       -2.3605927931       -2.2577783077
 H        -7.2370154488       -1.5737873533       -1.2094254058
 H        -4.8458400777        2.6590459962       -3.0254898385
 H        -4.5334989482        1.0167089965       -2.2584293969
 H        -4.8837740095        2.4969481463       -1.3844312547
 H        -5.9743104655       -1.3167552205       -3.2688823583
 H        -5.1347762137        0.0828734120       -3.6547155053
 H        -6.2235913419       -0.5337870172       -4.9162138240
 H        -7.1439065660        2.0791452258       -4.6958446466
 H        -8.6120108405        2.2108456720       -3.8169239247
 H        -8.3344736469        1.0890533352       -5.0526573941
 H        -8.6210461843       -5.1374442984        1.2570754870
 H        -9.4049976443       -4.9000593006        2.8622045358
 H        -8.0006412765       -4.1634917678        2.5911325012
 H       -11.4951864263       -3.2387197978        0.2906337080
 H       -11.0357299752       -4.9197330288        0.8328770993
 H       -10.3429194797       -4.2890618564       -0.4498588521
 H        -7.9879598958        0.3905620856        2.7486336141
 H        -7.8398367309        0.7254305786        4.4980785314
 H        -7.8845633165        2.0196572905        3.2503269158
 H       -11.0306166096        2.9670661442        4.5574162824
 H        -9.2790695718        3.0436787230        4.7728710049
 H       -10.1303736896        2.0792016368        5.8586597339
 H       -15.0516411092        2.5330038189        0.4335033368
 H       -15.1532426868        1.3584592959       -0.7928475015
 H       -15.3161786703        3.0658119001       -1.1439376418
 H       -12.2920366332        2.3203167024       -2.9154454868
 H       -13.9082891454        2.4460452961       -3.1271413209
 H       -13.0896136998        0.9321516404       -2.5677982148
 H       -13.8388466325        9.0268442630        1.8082678734
 H       -12.2244623774        9.7965171060        2.1720243910
 H       -12.4137738188        8.0603452981        2.2659749592
 H       -13.1414882265        9.8214592944       -1.4247753202
 H       -12.3904582953       10.9272703840       -0.3107058631
 H       -14.1367279770       10.1637368937        0.0435116259
 H        -6.0696922168       10.6582469278       -0.4516512450
 H        -7.1585196038       11.4722188136        0.6292781245
 H        -5.8321371344       12.3646270318        0.1108017697
 H        -6.6558073270       14.1780788959       -1.2052792238
 H        -8.0460167642       14.0549847176       -0.2073939689
 H        -8.3817688330       14.1430045957       -1.8905101759
 Na       -9.6052124374        2.4838670267       -1.0701508589
