117

 C        -6.5036406119       13.1598517997       -3.9064607290
 C        -6.3170573517       12.1061391081       -2.6866676861
 O        -5.6329111641       11.1480559754       -2.8058135045
 C        -7.2567077054       12.3369972981       -1.5108969550
 C        -8.7023532198       11.5591657566       -1.6435453150
 O        -9.6188382489       12.1788534708       -2.1714481229
 C        -8.9019732209       10.0682146788       -1.4851759847
 C       -10.3521734657        9.4824623850       -1.5122895662
 C       -10.8264936177        8.8766233194       -0.1015822312
 O       -10.0478551094        8.4734690014        0.6979267692
 C       -12.3801676371        8.9325158876        0.0843970729
 C       -13.0552072394        7.5398509459       -0.5375178683
 O       -13.8901606625        7.6298711462       -1.3396537018
 C       -12.6000422438        6.1400408803        0.0283040741
 C       -13.4720667174        5.0682811874       -0.5689953900
 C       -12.6480311954        3.8712608482       -0.8980460023
 O       -11.4230173735        3.9481885074       -0.8664610538
 C       -13.2729157523        2.3844977571       -1.0609999510
 C       -12.4326385407        1.4321593951       -0.0468379539
 O       -11.5455928615        0.7148125986       -0.4335683572
 C       -12.8964638939        1.3839976260        1.4328952892
 C       -11.9674288954        2.2378474081        2.4247720019
 C       -10.4433696557        1.9212148628        2.4944128469
 O        -9.6975114627        2.1662865091        1.5065149061
 C        -9.8440069482        1.3571022862        3.8342352021
 C       -10.4776631478       -0.1352670785        4.3284363107
 O       -11.5729925228       -0.0988486780        4.6895325526
 C        -9.6525712776       -1.3392831375        4.4387423539
 C       -10.3305846716       -2.7488525608        4.0949060197
 C       -10.7395751645       -2.6782823025        2.5871112682
 O       -11.5769620768       -1.9459505377        2.2131926549
 C        -9.8907673665       -3.4873562553        1.3958748116
 C        -8.8617667831       -2.3859084148        0.7714488682
 O        -7.6892548869       -2.4454394655        1.0931613797
 C        -9.3372075286       -1.4935595146       -0.3422072472
 C        -8.4140713593       -1.4726033748       -1.6299394694
 C        -8.3475155856       -0.1469367415       -2.2987311765
 O        -9.3725905874        0.4853249148       -2.1582691948
 C        -7.1199989394        0.5320765037       -3.0838604166
 C        -6.4649887578        1.5826952208       -2.1687223051
 O        -7.1958990094        2.3056332535       -1.5067305951
 C        -4.8939857509        1.8731979115       -2.3024848498
 C        -6.1451131068       -0.4241485279       -3.6868453441
 C        -7.7526432360        1.4055765747       -4.2371502952
 C        -8.8834628254       -4.5083928248        1.9855036272
 C       -10.7765660475       -4.0088709501        0.2077040566
 C        -8.3096264195        1.2567541827        3.6206964454
 C       -10.1071047709        2.4355432489        4.9153175896
 C       -14.7557713422        2.4312787549       -0.6544132264
 C       -13.1495842466        1.8609803022       -2.4358446254
 C       -12.6350748490        9.2300933669        1.5871020064
 C       -13.0477961258       10.1587474349       -0.7573149431
 C        -6.5964097607       11.6603961623       -0.3014560583
 C        -7.7608289282       13.7580556010       -1.0958618931
 H        -7.5130072975       13.4097923215       -4.1860717133
 H        -5.8330364344       12.9534102170       -4.7875369726
 H        -6.1251600377       14.0992450012       -3.5391264002
 H        -8.3357623084        9.7000680205       -0.6154430310
 H        -8.2335662966        9.6469931430       -2.3280114498
 H       -10.4959032047        8.5745663895       -2.1575562357
 H       -11.0586617605       10.2180220199       -1.7794575088
 H       -12.5535094749        6.1016397241        1.1415257144
 H       -11.6613586993        6.0530874099       -0.4331097155
 H       -14.0631986042        5.3927715218       -1.4459549177
 H       -14.3671726239        4.9288821123        0.0635132718
 H       -12.7931432891        0.2816290706        1.8067263429
 H       -13.9507751157        1.5869681990        1.5115548122
 H       -12.5990598662        2.2316556719        3.2535882030
 H       -12.0157558256        3.2739680969        1.9667582519
 H        -9.4758682055       -1.3721739710        5.5556310546
 H        -8.7519428039       -1.3398638852        3.8114049255
 H       -11.1269162398       -3.0573859227        4.7747987498
 H        -9.4591833566       -3.3540980163        4.0729701259
 H        -9.4269426240       -0.5308068522        0.0114892404
 H       -10.3813906132       -1.8014556068       -0.5803736812
 H        -8.8360304075       -2.1858338172       -2.2781713763
 H        -7.4201247434       -1.8075378970       -1.2597685047
 H        -4.7194350938        2.1511086050       -3.3407289729
 H        -4.3600453348        1.0243364421       -1.9720560428
 H        -4.6822912078        2.8352710507       -1.7576589798
 H        -6.0045805868       -1.3304038217       -3.1025309460
 H        -5.0572579212       -0.1644894091       -3.7703866599
 H        -6.4279867749       -0.7358720502       -4.7850633969
 H        -6.9734284567        2.0131503130       -4.7700325132
 H        -8.5596335844        2.0589250964       -3.9426341004
 H        -8.2684797622        0.9404777274       -4.9981367463
 H        -8.1117436660       -4.8184468473        1.1691291754
 H        -9.3606512249       -5.3579122826        2.4976618083
 H        -8.3477131311       -4.1675359820        2.9033550650
 H       -11.3209978527       -3.3029568595       -0.3610556516
 H       -11.3357123044       -4.8848814469        0.5577790491
 H       -10.1064915751       -4.6534052132       -0.4642964369
 H        -8.0129775675        0.5032882895        2.9507648003
 H        -7.8234127693        0.9501017301        4.5895841516
 H        -7.8584779998        2.2236154732        3.2552051018
 H       -10.7354899615        3.1744222997        4.4908923879
 H        -9.0692813032        2.7640015070        5.1792331173
 H       -10.5421159207        2.0921415492        5.8250144475
 H       -15.0262385750        2.7527469921        0.3154557831
 H       -15.0517539515        1.3844606310       -0.7162847387
 H       -15.3752399826        3.0524433583       -1.3248682841
 H       -12.3037188106        2.1234290036       -3.0098944539
 H       -13.8820310825        2.2881694068       -3.0378526739
 H       -13.1772332824        0.7119556679       -2.5244813759
 H       -13.7310558607        9.1096701173        1.6876075222
 H       -12.2941607690       10.2601435239        1.8705744351
 H       -12.1134419485        8.4739846159        2.3041882692
 H       -12.8892324178        9.8367405670       -1.7930427399
 H       -12.4229534934       10.9812200290       -0.5917783845
 H       -14.0915103235       10.2649346933       -0.4018756646
 H        -6.2788204950       10.5738082373       -0.4558791505
 H        -7.2327732303       11.7579190389        0.6564372509
 H        -5.7592029941       12.2121202966       -0.1099048224
 H        -7.0608915572       14.5669891183       -1.2323719060
 H        -8.0169627503       13.8600268194       -0.0255164573
 H        -8.6306204721       13.8569019867       -1.6941975402
 Na       -9.5227833710        2.4973795785       -0.9050440199
