117

 C        -7.1783063314       12.2496537570       -4.2469582650
 C        -6.5939238859       11.6527834966       -2.9292508362
 O        -5.9397134973       10.6514896722       -3.0381016790
 C        -7.0290072606       12.1806534808       -1.6146917862
 C        -8.5774084806       11.6325034260       -1.7001467259
 O        -9.4337557540       12.3081775646       -2.2770135958
 C        -8.5659492541       10.1021379678       -1.4471439427
 C        -9.8839217099        9.3987613482       -1.8571762407
 C       -10.7867945497        9.0749974254       -0.4182128227
 O       -10.3674405935        8.8404158759        0.6384038389
 C       -12.4251971141        9.2790458758       -0.5366872818
 C       -13.0778824651        7.9639414099       -0.8153680286
 O       -14.0120814514        7.6882823063       -1.4879336537
 C       -12.3062812474        6.6221770319       -0.1522532172
 C       -13.1683495810        5.3346865155       -0.3862080035
 C       -12.4137981194        4.0464938823       -0.4822664780
 O       -11.1984666968        4.1073422865       -0.6283284771
 C       -13.1292176900        2.6896445689       -0.7783675174
 C       -12.7101577816        1.3730957706        0.1690282103
 O       -11.9645489714        0.5281560433       -0.2094148948
 C       -13.0570654090        1.5865558702        1.7419120275
 C       -12.0070648152        2.4029852754        2.4482412248
 C       -10.5907919719        1.9552831573        2.5931141659
 O        -9.8839259047        1.8001742475        1.6041416306
 C        -9.9886545943        1.4965329684        4.1048323623
 C       -10.5037586082        0.0473652073        4.2798399317
 O       -11.6395472079       -0.2662697050        4.3609984510
 C        -9.5005595827       -1.1485547047        4.2712211298
 C       -10.2495064846       -2.5134739022        3.8964109910
 C       -10.5783653765       -2.4184048855        2.4247230214
 O       -11.4042657615       -1.6776396388        2.0558489375
 C        -9.9299489433       -3.5248067456        1.4568053437
 C        -8.8602958608       -2.7343259187        0.8168719074
 O        -7.6968057415       -2.9504118556        1.1999199914
 C        -9.3437849504       -1.4396071859        0.1213301206
 C        -8.4101311313       -1.2920389598       -1.0697706594
 C        -8.5487282345       -0.1476294496       -2.0596201113
 O        -9.3988380792        0.7132839132       -2.1049366819
 C        -7.2395160831        0.0877328839       -2.9324832733
 C        -6.4471969574        1.3527891086       -2.1453170637
 O        -7.0939712432        2.1751444713       -1.4813051197
 C        -4.9451981858        1.4886133892       -2.3824285995
 C        -6.2983383063       -1.1243299792       -2.8788738347
 C        -7.4950162841        0.4846247626       -4.4002762767
 C        -9.3851801062       -4.8405622166        2.1284680358
 C       -11.0242848606       -3.9415660746        0.5063539476
 C        -8.4168367732        1.5091546012        3.8891962731
 C       -10.2512288575        2.4880797280        5.2193778470
 C       -14.6676182830        2.9371775820       -0.7917427316
 C       -12.6179452027        2.4658909768       -2.2770379193
 C       -12.8627557125        9.6457339360        0.9240830995
 C       -12.8553755019       10.3606706222       -1.5870589373
 C        -6.2362046089       11.7655835267       -0.4130672489
 C        -7.1500671821       13.7940214966       -1.6025444942
 H        -8.3321908586       12.4281078091       -4.4016598505
 H        -6.7658559023       11.6570801954       -5.0774255201
 H        -6.5675349058       13.1753866729       -4.3931594394
 H        -8.4216668360       10.0156964117       -0.3650692522
 H        -7.6676159578        9.6648314345       -2.0586725650
 H        -9.8271903946        8.3924715099       -2.4196184908
 H       -10.5130231682        9.9840801783       -2.5092803596
 H       -12.2580009822        6.7984567210        0.9738050300
 H       -11.3985240986        6.4167345221       -0.6952128726
 H       -13.8452977040        5.5211817207       -1.2894301545
 H       -13.9828086900        5.2131580303        0.3994122431
 H       -13.1580471443        0.5156700677        2.0962520991
 H       -14.0450965101        1.9804250297        1.8801838645
 H       -12.5730513100        2.5683738711        3.3492387410
 H       -12.1684855273        3.3970233994        1.9772600161
 H        -8.9153639681       -1.1408931252        5.2199509823
 H        -8.7439816434       -0.9637084847        3.4881567754
 H       -11.0648371874       -2.8412575025        4.5283370392
 H        -9.4147370372       -3.1838671310        3.9837587134
 H        -9.3035233953       -0.6375010937        0.7782009303
 H       -10.3344557345       -1.4227745255       -0.4222298428
 H        -8.4823426617       -2.0992182276       -1.6576131187
 H        -7.4090981558       -1.1547281886       -0.6898798728
 H        -4.5887117915        0.6688120669       -2.9174616219
 H        -4.5456864929        1.7710300187       -1.4705441817
 H        -4.9743752190        2.3533169230       -3.0509163119
 H        -5.7434781794       -1.2728830044       -1.8493963206
 H        -5.3648733730       -0.9990979283       -3.4750196890
 H        -6.7777953656       -2.1569947646       -3.0727452583
 H        -6.5190772398        0.8041425110       -4.8733331515
 H        -8.1331262399        1.2765334046       -4.4827859511
 H        -8.0512356247       -0.1433971039       -5.0161101894
 H        -9.1478021666       -5.7385004140        1.5527952391
 H        -9.9422267630       -5.1037440984        3.0086901012
 H        -8.4001613462       -4.5811548802        2.4573142450
 H       -11.5950445165       -3.0335907035        0.2275351540
 H       -11.7395157388       -4.4966889109        1.0592831971
 H       -10.6547483477       -4.4002807627       -0.4255132887
 H        -8.3067432981        0.7924672560        3.1049012646
 H        -7.7165717875        1.1622543039        4.6628903456
 H        -8.2120650398        2.5410415742        3.5904791659
 H        -9.2731499499        2.8589924993        5.5523410069
 H       -10.7007668367        1.9138608329        6.0913383873
 H       -10.7457441641        3.3142462312        4.8741431879
 H       -14.9579540699        3.1073757477        0.2172623195
 H       -15.1660557170        2.0500508413       -1.2287613017
 H       -15.0304554852        3.7719076136       -1.3896084491
 H       -11.5278561534        2.2541312818       -2.4341020506
 H       -12.8148436035        3.2815287818       -2.8842583659
 H       -13.1521604457        1.6587352715       -2.8317304467
 H       -13.9931489588        9.8997213172        1.0127075341
 H       -12.5188852547       10.6539070208        1.0963843592
 H       -12.6191346914        8.9031434921        1.5898910509
 H       -12.4574804715        9.8853100041       -2.6062260461
 H       -12.3070305266       11.1699842428       -1.2836214760
 H       -13.9106158276       10.5587690094       -1.5282905982
 H        -5.8687300923       10.7799377726       -0.3955397640
 H        -6.9778617908       11.7644829775        0.4566853836
 H        -5.4740019066       12.4772914758       -0.1904568246
 H        -6.2208330791       14.2657690845       -1.5140686388
 H        -7.7211906989       14.0387510646       -0.6462702779
 H        -7.5481825822       14.2018422563       -2.5133031994
 Na       -9.6445909831        2.2599343818       -0.5410596507
