117

 C        -7.0427800820       12.1178782171       -4.5271033246
 C        -6.4748930541       11.5865515808       -3.2027085146
 O        -5.8429716922       10.5097669329       -3.0997107682
 C        -7.1117998218       12.1711399432       -1.7478193470
 C        -8.5252770870       11.6277130834       -1.7461986611
 O        -9.4817687587       12.2931187510       -2.0058235107
 C        -8.6791501104       10.0972921577       -1.3192847178
 C       -10.0197847174        9.4703332671       -1.5795809811
 C       -10.8932901908        9.2192345725       -0.4312567871
 O       -10.3571881250        8.7770323646        0.6000373517
 C       -12.3300136643        9.3045477524       -0.6682804233
 C       -13.0106729188        7.8775498123       -0.9394941314
 O       -14.0192587455        7.6813925858       -1.6201856638
 C       -12.1768778991        6.6671309164       -0.3319734463
 C       -13.1179510258        5.4611414509       -0.3135468827
 C       -12.2556602904        4.2210386322       -0.4043932152
 O       -11.0523641976        4.2033402893       -0.2573764820
 C       -13.0106852943        2.8294944255       -0.7112624705
 C       -12.4723074951        1.6453950269        0.2082108608
 O       -11.8900804705        0.6202206793       -0.2708998990
 C       -12.9633115046        1.7084165946        1.7410149962
 C       -12.0266973852        2.5534561345        2.6082386721
 C       -10.6254329148        1.9050370440        2.6956017286
 O        -9.9874738945        1.6378541457        1.7199370184
 C        -9.9153667011        1.5606773450        4.0023919902
 C       -10.4996062895       -0.0799339100        4.1357801455
 O       -11.7347038342       -0.2008407268        4.3496097564
 C        -9.4172601918       -1.1935741176        4.1739427430
 C       -10.2215385075       -2.4644436275        4.0547526643
 C       -10.8459708220       -2.5014968149        2.5050604945
 O       -11.3467105860       -1.4504219129        2.1422213872
 C       -10.1916871510       -3.5190273751        1.6120377154
 C        -8.9605654567       -2.6498483499        1.0017624859
 O        -7.7833632377       -2.9893976735        0.9586511131
 C        -9.3333570965       -1.4303899512        0.1135170819
 C        -8.2416750650       -1.3389650642       -0.9418283857
 C        -8.4413099074       -0.2352000892       -2.0330229660
 O        -9.4443700477        0.4189823733       -2.1762165924
 C        -7.1042414974        0.0643798480       -2.7989239229
 C        -6.4785111660        1.2945551158       -2.1346508105
 O        -7.2159096099        2.0491588296       -1.4556156766
 C        -5.0163522289        1.5594059466       -2.4435898430
 C        -6.2422413470       -1.2743440788       -2.8140376719
 C        -7.5609025037        0.2965670268       -4.2228369035
 C        -9.5323303253       -4.7156508384        2.2928604161
 C       -11.0899415017       -4.1065910298        0.2877039946
 C        -8.3732449271        1.6671556364        3.9211420544
 C       -10.5054533839        2.4559736773        5.1536892138
 C       -14.5966433189        3.1207525990       -0.6788612497
 C       -12.6076680956        2.3946498875       -2.1152847097
 C       -12.9304454109        9.7730912631        0.7760597755
 C       -12.7685915068       10.2888924669       -1.9342288123
 C        -6.2440740678       11.7202560208       -0.5228101264
 C        -7.1549975730       13.7145091770       -1.7977889570
 H        -7.9880547929       12.5703891480       -4.1244462830
 H        -7.2557649258       11.4708578121       -5.3516684470
 H        -6.4015540263       12.9153440050       -4.8595760503
 H        -8.3126444638       10.0054986204       -0.2784503750
 H        -8.0663812499        9.5039468987       -2.0921954800
 H        -9.8984287725        8.4318583877       -1.8585457558
 H       -10.5592950113        9.8423477797       -2.4831246848
 H       -11.9205187129        6.9289928175        0.6593226300
 H       -11.3749066739        6.3780614441       -1.0102156842
 H       -13.8262817126        5.5199467824       -1.1911908180
 H       -13.8450104304        5.4044354188        0.5442519476
 H       -13.0135066336        0.6683530084        1.9281884073
 H       -14.0978130864        1.8540797302        1.6190642197
 H       -12.5462954030        2.8998680580        3.5884220164
 H       -11.9696143635        3.4974223758        2.0662612226
 H        -8.9529954436       -1.1027415388        5.2187467762
 H        -8.5636496188       -0.8875031243        3.5057084078
 H       -10.9163541708       -2.4836298275        4.8816305312
 H        -9.4711359516       -3.2094794237        4.3397322275
 H        -9.2120977017       -0.5887226571        0.7626483396
 H       -10.2054102592       -1.2406155523       -0.4407255467
 H        -8.2862065791       -2.3157559997       -1.4785346873
 H        -7.2715355493       -1.1727780961       -0.4250493949
 H        -4.7060111668        0.5884479857       -2.7621758702
 H        -4.6214402457        1.9342400561       -1.4711428181
 H        -4.9340219308        2.2757853006       -3.1951166245
 H        -5.9552019207       -1.7600385484       -1.8139313415
 H        -5.1963158600       -1.0845376800       -3.1808739627
 H        -6.6600424066       -2.0211441839       -3.3615787617
 H        -6.6776864390        0.5642893156       -4.7621029943
 H        -8.2812157299        1.1185071168       -4.3864360264
 H        -8.1191444041       -0.5264887863       -4.7939607769
 H        -9.5023867434       -5.6789533281        1.7507126085
 H        -9.9571601813       -5.0044977809        3.3349601725
 H        -8.4224578916       -4.5451506910        2.3806305394
 H       -11.6034643124       -3.1860661621       -0.2232282984
 H       -11.9736265572       -4.6526509974        0.6469920995
 H       -10.4101908347       -4.4868800343       -0.4678664753
 H        -7.8541217396        0.9050302493        3.2426347667
 H        -8.0307865636        1.3306455151        4.8663599021
 H        -8.1328185145        2.7054194826        3.8790080697
 H        -9.7413805568        2.6185530264        5.9446307022
 H       -11.3270350468        1.9644263403        5.6013840026
 H       -10.7254078184        3.4053345826        4.6370186351
 H       -15.0024762922        3.1860357378        0.3464521597
 H       -15.0089667967        2.3215303027       -1.2899431393
 H       -14.9187416022        3.9559178081       -1.2260197273
 H       -11.4879107286        2.3176533820       -2.2026536700
 H       -12.8679513726        3.2144401552       -2.8451547223
 H       -13.0087529862        1.5846734065       -2.5651886807
 H       -14.0093093577       10.1331601137        0.7262148856
 H       -12.4909628881       10.7506239428        1.1716266929
 H       -12.9403136084        8.9443842065        1.4885965686
 H       -12.5887349865        9.7506167937       -2.8270479730
 H       -12.1761087240       11.2397596799       -1.7300015107
 H       -13.8061556193       10.4838558443       -1.7482228174
 H        -6.0099394868       10.6779204068       -0.6610637488
 H        -6.6434327698       11.7499079972        0.4854042520
 H        -5.2027072915       12.3490653776       -0.5700715729
 H        -6.1859553268       14.0776205120       -2.0126503333
 H        -7.4756505963       13.9828262467       -0.8018393646
 H        -7.7078888008       14.1693917312       -2.6039971907
 Na       -9.7262108424        2.2570452749       -0.6027262881
