117

 C        -6.7381841309       11.8553810242       -4.7709679147
 C        -6.5033060020       11.2825392670       -3.4889707144
 O        -5.7770880797       10.2835572685       -3.4130154684
 C        -6.9808084288       12.0805081739       -2.1811498563
 C        -8.3662546639       11.4750342773       -1.6175995780
 O        -9.2990437734       12.2187971118       -1.4661162985
 C        -8.5102665379        9.9438060405       -1.2550668932
 C        -9.9491242208        9.4650323288       -1.6929781544
 C       -10.9608140297        9.5741261553       -0.6277772423
 O       -10.6163043648        9.2916279549        0.5070479473
 C       -12.4029002771        9.5185602870       -0.9852891844
 C       -12.8411395408        7.9771469997       -1.1953295265
 O       -13.8648037580        7.6144422078       -1.7805842167
 C       -11.9423773552        6.8302496481       -0.4875383582
 C       -12.8531904461        5.6250171190       -0.2044751346
 C       -12.1222922089        4.2014343528       -0.1775022427
 O       -10.9212435749        4.0629676135       -0.0768194518
 C       -12.9328090439        2.8970848020       -0.7002235747
 C       -12.4217255621        1.6765032737        0.0865821708
 O       -11.4877387170        0.8988180035       -0.0991886419
 C       -12.8932020363        1.7784240585        1.7015494458
 C       -11.9275438185        2.6335144795        2.4771581725
 C       -10.5009266753        2.0421601492        2.8091068157
 O        -9.6811120444        1.7443749798        1.9293607084
 C       -10.0315880363        1.6863679589        4.2530404710
 C       -10.5972190444        0.2052032585        4.4345501245
 O       -11.7740555631        0.0404796639        4.7423623002
 C        -9.6646413364       -1.0268318654        4.2986652785
 C       -10.4683255162       -2.2841582493        4.0492764512
 C       -11.0353250511       -2.4508834135        2.6346955645
 O       -11.7818898467       -1.6929591279        2.1490527650
 C       -10.4113732268       -3.6557503284        1.7002668648
 C        -9.0241502715       -3.0435311758        1.0345477689
 O        -7.9732280244       -3.6385933521        1.2354327486
 C        -9.2424994351       -1.7815383924        0.1137481570
 C        -7.9558750818       -1.3040027158       -0.6702696866
 C        -8.3315888176       -0.5381041084       -1.9265832247
 O        -9.4398273548       -0.1123709387       -2.2335380602
 C        -7.1492323961       -0.1300263930       -2.8258788299
 C        -6.7418596809        1.3200324828       -2.1986157098
 O        -7.4651845325        1.8636495903       -1.3648065091
 C        -5.3057277272        1.8490949135       -2.4352298038
 C        -5.9266416274       -1.0554554420       -2.8597656314
 C        -7.5777901411        0.2453030969       -4.2634854034
 C        -9.9957545338       -4.9085968739        2.4928974331
 C       -11.6383706674       -3.8899815790        0.7426336234
 C        -8.5213010453        1.8252987722        4.3282019403
 C       -10.6084001360        2.5485790656        5.4147930319
 C       -14.4629435735        3.2169304152       -0.4671914019
 C       -12.5874140987        2.9210946749       -2.1416882496
 C       -13.2540982842       10.0870332972        0.2270968219
 C       -12.7838210212       10.3920728242       -2.2872457233
 C        -5.8917014849       11.8497842644       -1.0443410032
 C        -7.1496581086       13.5346013543       -2.4420958083
 H        -7.4674523618       12.7351733376       -4.8924966892
 H        -7.1200547829       11.1232547531       -5.4972507307
 H        -5.6918127642       12.2304420598       -4.9447814000
 H        -8.5838007101        9.9270705591       -0.2047774724
 H        -7.7400668072        9.2820519763       -1.7908926382
 H        -9.9106215481        8.3122331109       -1.7851272740
 H       -10.3529430395        9.6788600958       -2.6783410351
 H       -11.5677305207        7.1416080865        0.5480497384
 H       -11.0446426074        6.5562036415       -1.0912314762
 H       -13.6058292180        5.5265578327       -1.0102747878
 H       -13.3051088585        5.8291529670        0.7829116132
 H       -12.8350872274        0.7289143537        1.9934211237
 H       -13.9886678554        2.1085199326        1.5947285712
 H       -12.4860188821        2.8757252599        3.3866565487
 H       -11.6865360362        3.5839173513        2.0165028214
 H        -9.0237494080       -1.0246764678        5.1595689698
 H        -8.8928905531       -0.7639420856        3.6073396274
 H       -11.3144184771       -2.4509992905        4.7099312963
 H        -9.8175489126       -3.1104022411        4.3426223359
 H        -9.3889628497       -0.9846481804        0.8382475487
 H       -10.2272378942       -1.9941450359       -0.3990426462
 H        -7.4151928482       -2.1229237028       -0.9065779627
 H        -7.3499909524       -0.7004020376        0.0197660894
 H        -4.7770703074        0.9348146534       -2.2526736992
 H        -5.0573051425        2.7637664091       -1.8522613421
 H        -5.3349233999        2.0732185689       -3.4930094887
 H        -5.3436400289       -0.9698941893       -1.8326327456
 H        -5.4168685662       -0.9042182834       -3.8660636068
 H        -6.1660181585       -2.1286632625       -2.8533581808
 H        -6.7746171910        0.6577655228       -4.8844859868
 H        -8.3953979565        0.8793138140       -4.4517455793
 H        -7.7225252291       -0.7056021575       -4.8267050844
 H        -9.3360129931       -5.4308634548        1.8676075181
 H       -10.7742330762       -5.6189226513        2.4543897099
 H        -9.4647544749       -4.8119578298        3.3694057249
 H       -12.2695875271       -3.0264774190        0.4511565050
 H       -12.2320837636       -4.3914113990        1.3896543603
 H       -11.4130211104       -4.3638825516       -0.1452712991
 H        -8.1030471270        1.4283253536        3.3458610868
 H        -8.1015940749        1.3383130114        5.2092382782
 H        -8.3016035935        2.8985750350        4.4167848062
 H       -10.0911968808        2.0379077856        6.2352666808
 H       -11.6896155798        2.4464095154        5.6423033956
 H       -10.2909574475        3.5399961584        5.2763136714
 H       -14.5028716591        4.0407145631        0.2245377668
 H       -15.1105381051        2.3440466815       -0.1879020179
 H       -14.7992425496        3.5792466877       -1.4441871259
 H       -11.4586784801        3.0892190403       -2.3124150286
 H       -13.2142622855        3.5708251090       -2.7112357794
 H       -12.7930625764        2.0260208873       -2.6365617151
 H       -14.3163285245        9.7682875668        0.1024869454
 H       -13.3310269645       11.1725507052        0.2629182918
 H       -12.9595131985        9.8134186133        1.1657432408
 H       -12.1711411652       10.0800474418       -3.1267904864
 H       -12.8362325513       11.4958988547       -2.0213681829
 H       -13.7298004279        9.9856491017       -2.5469671488
 H        -5.7100834512       10.9017965335       -0.7574357514
 H        -6.1836550367       12.3482576998       -0.1503640199
 H        -4.8685481884       12.2924208941       -1.3392509633
 H        -6.4364940133       13.7738628429       -3.1511322572
 H        -7.2125914783       14.1966752548       -1.5091916096
 H        -8.0464259763       13.7237360165       -3.0690459830
 Na       -9.6229654746        1.8749240364       -0.7899998608
