117

 C        -6.7406284658       11.8016057505       -4.9037191088
 C        -6.3654646298       11.2134011095       -3.5762269490
 O        -5.8903001490       10.0427202891       -3.4205874146
 C        -6.8973023375       12.0438955741       -2.2638333216
 C        -8.2491585989       11.4914481745       -1.6450317086
 O        -9.1151429061       12.2461012401       -1.3799819238
 C        -8.3176858534        9.9498498146       -1.4065316773
 C        -9.7438538485        9.3537423302       -1.8188778113
 C       -10.9651079254        9.5812396861       -0.6540050597
 O       -10.7242171900        9.7517032962        0.5555448128
 C       -12.5272986666        9.4676158119       -1.1073239151
 C       -12.8017065244        7.9877048434       -1.1812377170
 O       -13.7925710996        7.6340058642       -1.8263095056
 C       -11.9807623248        6.8818506900       -0.4750404613
 C       -12.7503859303        5.5589724846       -0.1923037537
 C       -12.0334476784        4.2425111380       -0.3729290476
 O       -10.8365455792        4.1287209529       -0.3167885214
 C       -12.9368050455        3.0655488470       -0.6486783878
 C       -12.3670758090        1.8378802789        0.2835687336
 O       -11.6661409057        0.9959328647       -0.2485040192
 C       -12.7759978479        1.6121039744        1.8422006221
 C       -11.8626272860        2.5255597123        2.6586205598
 C       -10.4347847064        2.1289014735        2.8566982517
 O        -9.6844001535        1.9943761185        1.9282669965
 C       -10.0294329820        1.6969001085        4.3835603712
 C       -10.6255954003        0.2475243788        4.6929364213
 O       -11.8721680567        0.1719455159        4.8608236021
 C        -9.7482252879       -1.0280937398        4.2927376347
 C       -10.5038836698       -2.2727624256        4.1497738804
 C       -10.9294063494       -2.4432242615        2.6043544269
 O       -11.9110433762       -1.7632126607        2.3321275856
 C       -10.4689333957       -3.6815831325        1.6907419484
 C        -9.1402847571       -3.2595665402        0.9771520531
 O        -8.1441693796       -3.7691796496        1.3520733836
 C        -9.1827221534       -2.0266244642        0.0186485475
 C        -7.8373542862       -1.3677298583       -0.6374907058
 C        -8.3011136646       -0.5943598707       -1.9285420716
 O        -9.4538069859       -0.3380395853       -2.1531154981
 C        -7.1304661117        0.0169097509       -2.7820399552
 C        -6.7109867789        1.3433402826       -2.1051071795
 O        -7.4946095346        1.9656481264       -1.3936301514
 C        -5.4057480552        1.8847913922       -2.5258358048
 C        -5.9150825005       -0.9350549669       -2.7716846738
 C        -7.5954158809        0.2437741202       -4.2827256285
 C       -10.2119914658       -4.9238129512        2.4882549558
 C       -11.6968093745       -3.9230340763        0.7818198984
 C        -8.5036755686        1.6456264209        4.4674024148
 C       -10.6669557492        2.8189222649        5.5053486885
 C       -14.4825989328        3.1724531479       -0.5064887138
 C       -12.5568632891        2.9054709307       -2.2794530449
 C       -13.3215736124       10.0225330205        0.0411252270
 C       -12.7937924471       10.2978488793       -2.3947168458
 C        -5.7812457659       11.9907523434       -1.1588733950
 C        -7.2056359007       13.5094838290       -2.5647481353
 H        -7.6133445825       12.3900815511       -4.7898832020
 H        -7.0620570295       11.0304283260       -5.6569095443
 H        -5.8991115172       12.4946999947       -5.1945760297
 H        -8.2460867921        9.7533898697       -0.3156959620
 H        -7.5692841641        9.5269283347       -2.1159678827
 H        -9.6632851354        8.3732412946       -2.3145362863
 H       -10.2574993703        9.9211963818       -2.6686719795
 H       -11.5978468570        7.2073650136        0.4543319392
 H       -11.0330012066        6.6121422990       -1.0604434379
 H       -13.4576788493        5.4418047847       -1.0756058155
 H       -13.3140112590        5.5569733036        0.7942427002
 H       -12.5573373904        0.5647014301        1.9535729238
 H       -13.8879669649        1.8865736299        1.9979792953
 H       -12.5043844180        2.5418646988        3.5956471967
 H       -11.7703721137        3.5462518880        2.2914390548
 H        -8.9672922342       -0.9371298654        5.0494132356
 H        -9.0902717018       -0.7104282936        3.4991426039
 H       -11.4075358231       -2.3663112393        4.6960717143
 H        -9.8935339143       -3.0631033166        4.5843853073
 H        -9.6337768850       -1.2986509273        0.6809010346
 H        -9.8887178633       -2.2646873486       -0.7051186941
 H        -7.2170800888       -2.2547046339       -0.8276967605
 H        -7.2380054089       -0.7287873353       -0.0403948334
 H        -4.6972845859        1.3065679706       -1.9888921793
 H        -5.5209864299        2.9258144597       -2.2049104550
 H        -5.3860044666        1.8403386363       -3.5427924214
 H        -5.5343596941       -1.0828259225       -1.7663826516
 H        -5.2286149176       -0.7782514767       -3.7014820138
 H        -6.3076221934       -1.9601819061       -3.0252715824
 H        -7.0196557824        0.7611076474       -4.9292787650
 H        -8.6269504795        0.7340613907       -4.4458916972
 H        -7.5923005115       -0.7835071379       -4.7551468452
 H        -9.5340709921       -5.4830749846        1.8996716027
 H       -11.0293098622       -5.5778370125        2.3018134700
 H        -9.8324922633       -4.8306039538        3.5095347180
 H       -12.2126284937       -3.1193170303        0.2950131926
 H       -12.3891558808       -4.2780074436        1.5508910831
 H       -11.4718528248       -4.6623583129        0.0618428429
 H        -8.0631824918        1.0199637451        3.6030496588
 H        -8.2613914769        1.3000095217        5.4778845242
 H        -8.0912105754        2.6614356157        4.3913290218
 H       -10.2078672796        2.6511756051        6.4717879650
 H       -11.6679322359        2.5916000925        5.5981172362
 H       -10.6003613808        3.8566285202        5.0493852429
 H       -14.7114344752        3.5115243353        0.5301597848
 H       -14.7683025949        2.1359206809       -0.6237863506
 H       -14.9288092563        3.7909594947       -1.2706843588
 H       -11.4963970265        2.7969280515       -2.3944244547
 H       -12.9119158866        3.8850799170       -2.6993092252
 H       -13.0805336367        2.2333652459       -2.9320756676
 H       -14.2639685856        9.5925035619        0.1531301071
 H       -13.4980283660       11.1320618344        0.0996606028
 H       -12.7363655283        9.8732237763        1.0904804486
 H       -12.1405978784       10.0846185509       -3.1203917295
 H       -12.7163866011       11.3650551242       -1.9809315464
 H       -13.7461810208       10.0482496928       -2.8262015711
 H        -5.4958400684       10.9163554147       -0.7835191366
 H        -6.0036689882       12.5211597680       -0.2709868095
 H        -4.8312992962       12.3965583621       -1.5550630961
 H        -6.3678278292       13.9949833857       -3.1370765600
 H        -7.4406841529       13.9361380006       -1.6410220250
 H        -8.0622803999       13.6959647750       -3.2272367579
 Na       -9.6119179082        1.7861624607       -0.6707376618
