117

 C        -6.6347016473       11.5274872305       -5.1072473362
 C        -6.5010475859       11.0816000858       -3.6388545165
 O        -6.2263037997        9.9913445924       -3.4116066748
 C        -6.7680028271       12.0282999044       -2.4183588310
 C        -8.0744867036       11.4504965060       -1.6838405490
 O        -8.8947471077       12.1994443178       -1.2030725260
 C        -8.2235221962        9.8018157638       -1.5074633261
 C        -9.7682006358        9.4296834816       -1.8456379178
 C       -10.8289932432        9.9113212436       -0.7168050224
 O       -10.4981467622       10.4980330370        0.2633530515
 C       -12.4062236271        9.4923019759       -1.2435694519
 C       -12.6348493611        7.9086274240       -1.2818237702
 O       -13.5877104004        7.5639688273       -1.9719828983
 C       -11.8474272263        6.9458301683       -0.3753049611
 C       -12.6792348849        5.6677856585       -0.2366644552
 C       -11.9666009103        4.2983686908       -0.4381012757
 O       -10.7784289225        4.2669661561       -0.7568382726
 C       -12.8545211588        2.9839225221       -0.7323527649
 C       -12.2424779636        1.8277751656        0.1233002542
 O       -11.7477529784        0.8257691430       -0.3903506935
 C       -12.6106398899        1.5530120069        1.6371163777
 C       -11.9554866730        2.4548754325        2.7965875956
 C       -10.4303752758        2.2170703187        2.9952693092
 O        -9.6090087030        2.2726225579        2.0241042997
 C       -10.0973131192        1.7655877070        4.4636553330
 C       -10.7325273550        0.3104150646        4.7446300942
 O       -11.8106703836        0.4159796576        5.1899158270
 C        -9.9365040588       -0.9565500539        4.3860701530
 C       -10.5620270005       -2.3440774678        4.1345734834
 C       -11.1553871238       -2.4490029824        2.8043582337
 O       -11.9906815227       -1.6922857202        2.3885218627
 C       -10.6591901657       -3.6951946904        1.9059560735
 C        -9.4059206401       -3.3507803529        1.1429553494
 O        -8.3077540208       -3.8101092566        1.3623481328
 C        -9.4259145784       -2.4141830514       -0.1323172705
 C        -8.0880464130       -1.9369539444       -0.6020228980
 C        -8.2236501259       -0.7537884353       -1.6554846973
 O        -9.3741600888       -0.4925229784       -1.9977636098
 C        -7.0824066262        0.0382742983       -2.5612377424
 C        -6.7206804750        1.4504639400       -2.0579436541
 O        -7.5298709475        2.1494458276       -1.4756088267
 C        -5.4931606835        2.1764296402       -2.6340567500
 C        -5.7671674675       -0.8632051945       -2.7200409469
 C        -7.7601356409        0.1774609346       -3.9265799443
 C       -10.5680530972       -5.0817950175        2.6155475226
 C       -11.6816683388       -3.9059093868        0.7091538976
 C        -8.5250349094        1.6996916241        4.7492909109
 C       -10.5150696113        2.9282775059        5.4391761777
 C       -14.4110003371        3.2917302093       -0.3353189662
 C       -12.6996932191        2.5306851029       -2.1965259802
 C       -13.3699025622        9.9915541251       -0.1283721493
 C       -12.7060973438       10.0193259030       -2.7112912907
 C        -5.5634239383       12.0303263139       -1.5266506452
 C        -6.9891574078       13.4853244783       -2.9311297318
 H        -7.6628910037       11.1894433758       -5.3489013289
 H        -6.0232868187       10.9397241633       -5.6851075084
 H        -6.6432338012       12.5564248620       -5.2746705239
 H        -8.2611685953        9.7478722560       -0.4371548201
 H        -7.5153313106        9.2365873611       -2.1002961165
 H        -9.9074220310        8.3538219437       -2.0167285870
 H       -10.1106997911        9.6668027177       -2.8252873539
 H       -11.6421687657        7.3922209535        0.6508428285
 H       -10.8479639686        6.8063789424       -0.6532956910
 H       -13.4790116694        5.7400014833       -0.9561022820
 H       -12.9799897643        5.5972852628        0.8007965219
 H       -12.5149678287        0.4782221951        1.5999725661
 H       -13.5917180885        1.9005847520        1.7722024777
 H       -12.6202681926        2.1444633458        3.5476862971
 H       -12.1430998363        3.5175509166        2.5057625444
 H        -8.9778972833       -0.8409982062        4.8748465027
 H        -9.6120284423       -0.5209264463        3.4190045608
 H       -11.2691314410       -2.7053467379        4.9337007275
 H        -9.7736305220       -3.0876200238        4.2818816073
 H       -10.0489332934       -1.5365877088        0.1211077521
 H        -9.9760830497       -3.0166419934       -0.9471970414
 H        -7.3874649845       -2.7367908566       -0.9440011723
 H        -7.4701379608       -1.4119905441        0.2417849680
 H        -4.8350051396        2.3029162582       -1.7471897046
 H        -5.9465062634        3.1474306780       -2.9087907236
 H        -5.1574253598        1.6554803533       -3.5843365625
 H        -5.5605396885       -1.2319343280       -1.7352372246
 H        -4.9984546281       -0.3356710057       -3.1884699284
 H        -5.9464267250       -1.6342602659       -3.3589426596
 H        -7.3656578658        0.9055224240       -4.7478996077
 H        -8.6799699452        0.6674172544       -3.7656793830
 H        -7.8661516014       -0.7503136301       -4.5286851399
 H       -10.4471075915       -6.0338301069        1.9878974360
 H       -11.5650584499       -5.3123380584        3.1438667004
 H        -9.7802159406       -4.8862493805        3.3732336006
 H       -11.4162746052       -3.3014477098       -0.2380518276
 H       -12.7430862704       -3.6360537258        0.9145006278
 H       -11.5078354261       -4.9982996706        0.4252347953
 H        -8.1310814574        1.0993104479        3.9464908869
 H        -8.3798055836        1.4161701909        5.7909000490
 H        -7.9713826417        2.6124585691        4.5716584337
 H        -9.7282283612        3.0565391419        6.1952213633
 H       -11.5568262507        2.7216235739        5.8607135883
 H       -10.6224344571        3.7347315681        4.8133560719
 H       -14.4357434296        3.1289688255        0.7039053987
 H       -15.1331688783        2.6551573810       -0.8635131818
 H       -14.5224017127        4.3465279207       -0.5084839001
 H       -11.7231895011        1.9164346588       -2.2920513568
 H       -12.8780064551        3.2273387018       -3.0048723435
 H       -13.5124454830        1.8041609280       -2.3275239735
 H       -14.4927105414        9.7674431068       -0.3537572275
 H       -13.2429691755       11.0618269323       -0.0151308614
 H       -13.1913754573        9.7760884219        0.8237572016
 H       -12.2364789839        9.3094937035       -3.4974803197
 H       -12.2894804048       11.0752738353       -2.8263432442
 H       -13.8114818362        9.9605342641       -2.9038646670
 H        -5.2822618236       11.0945135886       -1.3159682316
 H        -5.8328537228       12.4566863016       -0.5332466240
 H        -4.6462947624       12.5478075519       -1.9032493461
 H        -6.0770839359       13.9635003423       -3.1744781352
 H        -7.4115830695       14.1169858395       -2.0513672870
 H        -7.7444397872       13.6351914868       -3.7125869539
 Na       -9.6967126649        1.8765676307       -0.2189489077
