117

 C        -6.5814909548       11.3695496429       -5.4318739673
 C        -6.5112362222       10.7747963196       -3.8620248765
 O        -6.3324763998        9.6289698654       -3.5763728522
 C        -6.8036693775       11.8055111782       -2.8119485890
 C        -7.9164137178       11.5607820016       -1.7266781867
 O        -8.5291993074       12.5486952463       -1.2915129311
 C        -8.1646471111       10.0297279023       -1.2382226285
 C        -9.5226787653        9.5594434007       -1.8230594795
 C       -10.7237677218       10.0823219955       -1.0488343538
 O       -10.4758541892       10.9402594838       -0.2787828792
 C       -12.1534072375        9.4880274667       -1.4080412716
 C       -12.3395745062        7.7800929969       -1.4757261596
 O       -13.0116014795        7.2562534529       -2.3093872335
 C       -11.6245436464        6.8528504172       -0.4091687183
 C       -12.4610922563        5.5569648322       -0.2809854914
 C       -11.8485806335        4.1319063823       -0.4428612374
 O       -10.7022327751        3.8632095934       -0.7834913132
 C       -12.9705973796        2.9204109692       -0.5796177746
 C       -12.2590707396        1.7602142022        0.2232010252
 O       -11.4626927946        1.0605933288       -0.3854764232
 C       -12.5730688553        1.5897462046        1.7082894290
 C       -11.9409381509        2.6540222709        2.6328946320
 C       -10.5392675362        2.1363412552        2.8348320558
 O        -9.6460368801        2.1226231451        1.9948495381
 C       -10.1807040536        1.8540327013        4.3901552787
 C       -10.6713013800        0.3070209421        4.7395844227
 O       -11.6184759023        0.2293312474        5.4053798058
 C        -9.7742506736       -0.9276553436        4.2341777154
 C       -10.7551605791       -2.0552808614        4.0074737881
 C       -11.3729890026       -2.2652579415        2.6905722401
 O       -11.9545162386       -1.3824505184        2.0730662325
 C       -11.0400701849       -3.5901091849        1.9557768370
 C        -9.6345032038       -3.3986563847        1.2029573272
 O        -8.6176236224       -3.7683078767        1.7465095112
 C        -9.6383877168       -2.5907372822       -0.2167934857
 C        -8.2907704452       -2.0558685528       -0.6497692028
 C        -8.2970811596       -0.6987070617       -1.3679556890
 O        -9.2517302510       -0.0025518919       -1.0605474071
 C        -7.2241750148       -0.1135507854       -2.3743498415
 C        -7.0123983400        1.4546069565       -1.9476648908
 O        -7.6448431271        2.0027357937       -1.0797100950
 C        -5.7724499647        2.3143719306       -2.6584182438
 C        -5.9393775008       -0.8532382989       -2.1215380730
 C        -7.6215398059       -0.1321140595       -3.8730974491
 C       -10.8151300294       -4.8329887788        2.9246896900
 C       -12.1299869905       -3.9689916726        1.0659170315
 C        -8.5833280155        1.8767927976        4.6020977901
 C       -10.8451727933        2.8378791245        5.4800961859
 C       -14.4273279963        3.1588398150        0.0131866691
 C       -13.0324464389        2.5084433810       -2.0083391780
 C       -13.1343947708       10.0818515557       -0.4586638234
 C       -12.5464739825        9.8440410533       -2.8502099515
 C        -5.5322620376       11.6813346290       -1.8261667146
 C        -6.9951773666       13.2341878678       -3.3131546228
 H        -6.7183670721       10.4118577596       -6.0398734344
 H        -5.6566616091       11.8626194302       -5.7341764176
 H        -7.4798429303       11.9658003344       -5.7028395996
 H        -8.2736305104       10.1184964258       -0.0740049466
 H        -7.3874885570        9.3910286710       -1.6331759278
 H        -9.6250825860        8.5110614827       -2.1606708082
 H        -9.5402227223        9.9922130741       -2.8809194743
 H       -11.2490245490        7.2737391524        0.5227060374
 H       -10.6295079416        6.6631927705       -0.8142066916
 H       -13.2378231040        5.6461214726       -1.1028919635
 H       -12.7961639249        5.4805414034        0.7990697752
 H       -12.0927226211        0.5818375621        1.9768010365
 H       -13.6096629642        1.4876143009        1.6770572104
 H       -12.4573354528        2.8093422091        3.5740943489
 H       -11.8240451894        3.6144026475        2.0595267621
 H        -8.9313837554       -1.1141050183        4.8977495686
 H        -9.4079867989       -0.4433950390        3.3455974379
 H       -11.4302329348       -2.0663570121        4.8616612278
 H       -10.1484056902       -2.9348630736        4.1876496404
 H       -10.4442394303       -1.9029862426       -0.2004259746
 H        -9.9234422276       -3.3812259137       -0.8379799329
 H        -7.5959917784       -2.7000735741       -1.2641753737
 H        -7.7116720187       -1.7856941681        0.2267871592
 H        -5.2598357130        2.7474988991       -1.8586757697
 H        -6.2530024819        3.0153615777       -3.2323554781
 H        -5.2555824333        1.7218380688       -3.3980266930
 H        -5.6756972820       -0.5391859194       -1.0510912523
 H        -5.1811671532       -0.4286929211       -2.7716629576
 H        -6.0968832239       -1.8967834121       -2.3112006088
 H        -6.7340729516        0.2825246036       -4.5653945739
 H        -8.2769221400        0.6930440411       -4.0641176028
 H        -7.9813275054       -1.0454440404       -4.3670420867
 H       -10.9262205932       -5.7304590859        2.2547754153
 H       -11.4738205780       -4.7288280692        3.7582684271
 H        -9.8753613463       -4.8254221313        3.4125731521
 H       -12.7203072217       -3.0321251018        0.9865610017
 H       -12.6874345503       -4.8227115744        1.3809538741
 H       -11.7688996406       -4.3155611285        0.1044395675
 H        -8.1010160336        1.2908333888        3.8913339881
 H        -8.4613541182        1.7116971724        5.6942119071
 H        -8.0791670085        2.8464557003        4.4165408354
 H       -10.5265075449        2.3864546896        6.4095033700
 H       -11.9520322465        3.0456775125        5.4265635872
 H       -10.3292871619        3.7563271427        5.4313149918
 H       -14.3499126157        3.8856152347        0.7951027105
 H       -14.6688280726        2.2240240718        0.4721575778
 H       -15.1226362150        3.3674134651       -0.8250487029
 H       -12.0803497422        2.7070618536       -2.5306587468
 H       -13.7453613096        3.1448108359       -2.5079503975
 H       -13.3325795987        1.4410888095       -2.1270719540
 H       -14.2831452217        9.8070536550       -0.6211813887
 H       -12.9836263086       11.1382718411       -0.1341703351
 H       -12.9959072574        9.7355417900        0.5088009634
 H       -11.6865127672        9.5955646646       -3.5683361741
 H       -12.5871307093       10.9100184459       -2.8888219943
 H       -13.5128500178        9.4897990914       -3.1006852695
 H        -5.2827817140       10.7424042320       -1.4189663392
 H        -5.4190056797       12.5038919065       -1.0015625984
 H        -4.6736984769       11.9150950133       -2.4962675953
 H        -6.2795234608       13.6278977042       -4.0052574666
 H        -6.9182056770       13.9769958914       -2.4812715154
 H        -8.0007546289       13.2659506017       -3.6205729377
 Na       -9.5886606172        2.2430339661       -0.1306253527
