117

 C        -6.6689554743       10.9732307118       -5.5893524520
 C        -6.5841120074       10.6625349343       -4.0340332331
 O        -6.6391432727        9.4348229599       -3.7089914782
 C        -6.5681085550       11.8666438813       -2.8757852263
 C        -7.8169330528       11.5687146954       -1.8571302308
 O        -8.3900502290       12.5508733991       -1.4364418107
 C        -7.9970963946       10.1255708300       -1.3131609122
 C        -9.3452725422        9.4209798288       -1.7423116365
 C       -10.6458970237        9.9527192683       -1.1752382727
 O       -10.7252968936       10.8220035443       -0.3135941943
 C       -12.0117120413        9.2081816996       -1.6311137645
 C       -12.0409501396        7.7079410305       -1.7311088398
 O       -12.7212098376        7.1929332688       -2.6243004346
 C       -11.6362155379        6.8132974067       -0.6257726966
 C       -12.7406439068        5.8055561437       -0.2383448257
 C       -12.0895983687        4.3816713002       -0.4498043574
 O       -10.9024531169        4.3032943658       -0.6633476057
 C       -13.0731692346        3.1349601274       -0.4364021488
 C       -12.3979230661        1.8831628158        0.2648758223
 O       -11.7504875440        0.9861468457       -0.2284998401
 C       -12.6371577557        1.7167729340        1.8241378861
 C       -11.9066884209        2.8202272388        2.5871751822
 C       -10.5005678430        2.1458559295        3.0039275274
 O        -9.6360607358        1.9467722724        2.1707157198
 C       -10.1353762910        1.9247873416        4.5895630890
 C       -10.5776896652        0.4301692799        4.7437448052
 O       -11.5920397465        0.2776688613        5.4216550088
 C        -9.7931281602       -0.7678479125        3.8918715477
 C       -10.6798448096       -2.0372353000        4.0483371783
 C       -11.2995920001       -2.2719205187        2.6583803959
 O       -11.7059728681       -1.2637071173        2.0651219152
 C       -11.1146974489       -3.7397124987        1.8923990272
 C        -9.7963955371       -3.3116614952        1.1170711628
 O        -8.7361974117       -3.4005531196        1.7114245639
 C        -9.9000755456       -2.4902472516       -0.2702003716
 C        -8.4997517900       -2.1544542798       -0.8379990672
 C        -8.3463217556       -0.6404676162       -1.0131934689
 O        -9.2141666260        0.0439539448       -0.5928368633
 C        -7.2375798116       -0.2235363762       -1.9629868546
 C        -6.7792991635        1.4153881868       -1.7868798404
 O        -7.2626606825        2.0920771460       -0.8723855688
 C        -5.9107956381        1.9561496643       -2.8901623051
 C        -5.8886710160       -0.9156347604       -1.6698441324
 C        -7.6897559633       -0.5777907798       -3.4146304384
 C       -10.9843173107       -4.8696768687        2.9852586410
 C       -12.1835885910       -3.9394901220        0.8999551059
 C        -8.6451960213        2.0229035562        4.7166322980
 C       -10.9356990728        2.8500691289        5.6056245887
 C       -14.4611583830        3.4699418816        0.1271226286
 C       -13.2108704127        2.5679545526       -2.0192281407
 C       -13.0881799384        9.5109761554       -0.5498130943
 C       -12.4346833425        9.9361683115       -3.0290125833
 C        -5.2226552387       11.7765823192       -2.1725479619
 C        -6.6222151402       13.2103039832       -3.4714318362
 H        -6.2355793191       10.2916866708       -6.2133996702
 H        -6.3479552107       12.0176870557       -5.7829854216
 H        -7.7029318187       10.8828372563       -5.8509158332
 H        -7.9889576003       10.1223348329       -0.2795890111
 H        -7.1372293714        9.6054237705       -1.7806322778
 H        -9.2626278924        8.3020340057       -1.5258088325
 H        -9.5034434044        9.4716515508       -2.8120411797
 H       -11.3691995776        7.4358385758        0.2067343149
 H       -10.6438968112        6.3757634773       -0.7257508583
 H       -13.4342387986        5.9227307708       -1.0668027112
 H       -13.0116312060        6.0104538159        0.7780537092
 H       -12.2321573777        0.7773991837        2.1615368449
 H       -13.7731326025        1.5039085931        1.9207370840
 H       -12.3900849024        3.1930437516        3.5335216527
 H       -11.7083591003        3.6450337943        1.9147675548
 H        -8.8864498000       -0.8187203425        4.5005811610
 H        -9.5066666172       -0.4515102647        2.8696295846
 H       -11.6423580327       -1.8636368305        4.6176602569
 H       -10.0799127803       -2.7926267250        4.6127732004
 H       -10.5061162249       -1.7027696496        0.2718329262
 H       -10.5762051779       -2.9007856011       -1.0942724555
 H        -8.2875195836       -2.4882709595       -1.8338688559
 H        -7.5855838256       -2.4365051737       -0.2122763283
 H        -5.2487249845        2.6379611138       -2.3112050288
 H        -6.6046604227        2.5502665699       -3.5640877171
 H        -5.4866258007        1.1225232226       -3.4617957384
 H        -5.5394023647       -0.6315681485       -0.7534707203
 H        -5.2333726169       -0.3838681684       -2.2694036757
 H        -5.9585480560       -2.0115146539       -1.8805393568
 H        -7.0253139449       -0.0704630473       -4.0774903150
 H        -8.7378977293       -0.3791327796       -3.8321604099
 H        -7.4859620749       -1.6225735962       -3.6146281332
 H       -10.9223880723       -5.7871956602        2.4033436436
 H       -11.8976946578       -4.6734957541        3.6157255888
 H       -10.1898664871       -4.7768589650        3.8121354257
 H       -12.3817129642       -2.9700597739        0.4670753691
 H       -13.0819971976       -4.4748581262        1.3553346622
 H       -11.9320552947       -4.7895199428        0.2175732692
 H        -8.0763752636        1.2895316437        4.0716905506
 H        -8.5315244573        1.9639141174        5.7747446271
 H        -8.2478332872        2.9984586551        4.4471260066
 H       -10.5918187631        2.4997383694        6.5814336784
 H       -11.9710505142        2.6839525823        5.5704951668
 H       -10.6763453446        3.9645460033        5.5809609135
 H       -14.3815372183        3.4685469540        1.2290100218
 H       -15.2913716427        2.8707513846       -0.2304271357
 H       -14.5437003090        4.4449425772       -0.2666649347
 H       -12.3542419215        2.0345097463       -2.3411623577
 H       -13.2005076444        3.4437897907       -2.7519878267
 H       -14.0877877431        1.8745216078       -2.0039310884
 H       -13.9901142995        9.0172643982       -0.4839996434
 H       -13.2933227752       10.5184560457       -0.5795827922
 H       -12.7454992156        9.5049475346        0.5322877889
 H       -11.5525613131        9.9435789494       -3.6861551684
 H       -12.6088874141       10.9721728587       -2.8498973167
 H       -13.4207413088        9.4898601580       -3.4840548356
 H        -5.0643445029       10.7724315021       -1.7035710376
 H        -5.1483118765       12.4826044253       -1.3885019966
 H        -4.3695066709       11.9615820585       -2.7060133605
 H        -5.5811751664       13.4259586679       -3.8293596664
 H        -6.8136223436       14.0112052027       -2.8638406699
 H        -7.3882532832       13.1702516636       -4.2666004158
 Na       -9.5451851103        2.2216549706       -0.2428600511
