117

 C        -6.7559170432       10.8765541065       -5.6042067313
 C        -6.6184419746       10.6430627280       -4.0587531676
 O        -6.7392680714        9.4436823755       -3.6992009227
 C        -6.4369271015       11.7288901106       -3.0409087056
 C        -7.6539319434       11.5680123735       -1.9686064905
 O        -8.3257474748       12.5620066406       -1.6136221977
 C        -7.9899705031       10.1632327986       -1.2781401441
 C        -9.3055020583        9.3640138218       -1.7274592565
 C       -10.6356191765        9.9064056016       -1.1198618963
 O       -10.6501423684       10.7495928602       -0.3120828296
 C       -12.0090161650        9.2543968274       -1.7719309452
 C       -12.1326234010        7.6690811625       -2.0314168517
 O       -12.5224983584        7.0227623426       -2.9104598179
 C       -11.6524569298        6.9392028611       -0.5914441371
 C       -12.6702659787        5.8097412127       -0.2753039159
 C       -12.1156629175        4.3862775700       -0.4580073938
 O       -10.8940633604        4.1802843116       -0.5476778586
 C       -13.1733519211        3.2250942621       -0.4027898138
 C       -12.5957583818        1.9066631449        0.3572911218
 O       -11.9822232811        1.0477817675       -0.2726169473
 C       -12.7543410658        1.8340289418        1.8966326814
 C       -11.7553143637        2.8101879366        2.6337687357
 C       -10.3695461747        2.2791404484        3.0922500944
 O        -9.6160226541        1.9484915929        2.2284737834
 C       -10.1425374654        1.9706463607        4.5745082446
 C       -10.6590342767        0.4498515912        4.8518673349
 O       -11.6466522873        0.2066704323        5.4216080600
 C        -9.9003707410       -0.5849926017        4.1117349198
 C       -10.6156597755       -1.9476246895        3.9634256308
 C       -11.2213057574       -2.2420544538        2.6164723639
 O       -11.7631236089       -1.3959690191        1.8754506200
 C       -11.1680834116       -3.7004398277        1.9116823841
 C        -9.7391603406       -3.1984907470        1.1200198809
 O        -8.6766667832       -3.2973762342        1.6905058151
 C        -9.9237194726       -2.5308989605       -0.1906696109
 C        -8.6158627059       -2.2925669573       -0.9000474739
 C        -8.3050032482       -0.7029451305       -0.8938227008
 O        -9.1313568237        0.0528511948       -0.4166695819
 C        -7.0863193717       -0.2368391496       -1.7727757244
 C        -6.8494165415        1.3145104343       -1.7888342711
 O        -7.1232787020        2.0720575430       -0.8755265087
 C        -6.0080287896        1.8274654363       -3.0043739081
 C        -5.8283694503       -1.0698198970       -1.3657330097
 C        -7.6743687644       -0.6061671846       -3.0943752128
 C       -11.0284109559       -4.9048408648        2.7622920554
 C       -12.3795516839       -3.8682982016        0.9968715796
 C        -8.5727193170        2.1645483641        4.7272947742
 C       -10.8904274741        2.8255376214        5.6907909737
 C       -14.5446010085        3.5902850163        0.0612611376
 C       -13.3521897454        2.8180793766       -1.8988455204
 C       -13.0585532628        9.4225090416       -0.6529949883
 C       -12.3400076117        9.9764408724       -3.0074613160
 C        -5.1242221503       11.6041463506       -2.3078371141
 C        -6.5898823450       13.2140155881       -3.6068680875
 H        -6.0747882314       10.0988776759       -5.9734851493
 H        -6.4294899173       11.8740082432       -5.8856008111
 H        -7.6892834632       10.6547291201       -6.0997721815
 H        -8.1330996838       10.2942279517       -0.1690599436
 H        -7.1497989965        9.5748670343       -1.5034621676
 H        -9.1106897250        8.2978753127       -1.4984006761
 H        -9.4842681968        9.4594934219       -2.8618894834
 H       -11.6102986272        7.5811029732        0.2553844549
 H       -10.5714392437        6.6227835808       -0.5250373166
 H       -13.3242564397        5.8967747108       -1.0909933376
 H       -13.0064722707        5.9592388777        0.7185951710
 H       -12.7249852528        0.7919549607        2.3810828704
 H       -13.7949110299        2.1306203122        2.1792145474
 H       -12.2951840211        3.1291433021        3.5335608935
 H       -11.5810406835        3.6721105915        2.0260993113
 H        -8.8165217436       -0.6651473657        4.3174065059
 H        -9.9379154389       -0.1182043155        3.1074826708
 H       -11.3663336906       -2.3349396015        4.6696348376
 H        -9.7164361655       -2.5868633508        4.0090206839
 H       -10.6571064734       -1.7227354564        0.2046817147
 H       -10.5801539947       -3.1641681850       -0.7994960298
 H        -8.5610021891       -2.6359317842       -1.9590048345
 H        -7.8216509466       -2.6638092981       -0.3968849703
 H        -5.2690396942        2.5131596463       -2.5109902719
 H        -6.6314178963        2.3226586054       -3.7355906018
 H        -5.5995840031        0.8517581952       -3.4719441884
 H        -5.4466316857       -0.7677309904       -0.2969213476
 H        -4.9810297050       -0.8594595059       -1.9891920572
 H        -6.2914819400       -2.0751355864       -1.4465055063
 H        -7.3552229504       -0.1345201860       -4.1323017621
 H        -8.7307083643       -0.5251638432       -3.0706270011
 H        -7.5599821377       -1.6230066653       -3.2194112824
 H       -10.9977501717       -5.6520878892        1.9790005603
 H       -11.6786071814       -4.9700012755        3.5624663030
 H       -10.0526742494       -4.9017103481        3.2192184369
 H       -12.3775187075       -3.1877726231        0.2149646084
 H       -13.2851925545       -3.8386096709        1.6026758806
 H       -12.4789541386       -4.9077926513        0.7184004254
 H        -7.9832178797        1.6606112032        3.9915225548
 H        -8.3218411810        1.9346472116        5.7922496882
 H        -8.3907160637        3.2694228278        4.6820525701
 H       -10.3218948191        2.7263569382        6.6016290519
 H       -11.9174640600        2.4760273091        5.9311017679
 H       -10.8653633510        3.9117095701        5.4377888536
 H       -14.4395477021        3.5420219334        1.1584783548
 H       -15.2595309185        2.8578733725       -0.2583128758
 H       -14.8390259107        4.5889511679       -0.3192507527
 H       -12.5743221558        2.1899598348       -2.2302848656
 H       -13.1580526275        3.6877743399       -2.4941586506
 H       -14.3319740158        2.2630403897       -2.0440347612
 H       -13.9361812433        8.6855109119       -0.7873873063
 H       -13.5708536135       10.3479352388       -0.5453211633
 H       -12.7532392450        9.1774364720        0.2907839726
 H       -11.5138624418        9.8427720237       -3.8143202575
 H       -12.4768832320       10.9920244710       -2.9028284648
 H       -13.2802519109        9.5305802038       -3.2703281755
 H        -4.8781314967       10.7008448644       -1.8113967544
 H        -5.1628706980       12.4126514645       -1.4995323828
 H        -4.2636406984       11.8780873682       -2.8318051933
 H        -5.5762702631       13.7013243612       -3.7578893716
 H        -6.9140602409       13.7876627138       -2.7400367855
 H        -7.3313157858       13.4075236617       -4.3829247518
 Na       -9.5351857590        2.3500779688       -0.2633509476
