117

 C        -6.7376694581       10.7668206917       -5.6891858400
 C        -6.7675873191       10.4122732023       -4.2379176670
 O        -6.8065203691        9.2881524635       -3.7857656345
 C        -6.4365811509       11.5825598552       -3.1405364342
 C        -7.7543217048       11.6188077812       -2.0530279934
 O        -8.4101620596       12.6151292358       -1.9103486366
 C        -8.0175236558       10.2312924440       -1.2186003678
 C        -9.2518625281        9.4503079580       -1.9176703771
 C       -10.5752430666        9.7710152443       -1.2585659654
 O       -10.6014464268       10.4207948724       -0.2083328627
 C       -11.9360523629        9.2941065757       -1.8744999182
 C       -11.8265551722        7.7028221396       -1.9833096267
 O       -11.8305713596        7.2379454257       -3.1780929718
 C       -11.4070771722        6.7797124632       -0.7601592520
 C       -12.6164585518        5.8908235784       -0.3963122369
 C       -12.2320695830        4.4378976774       -0.2882474839
 O       -11.1174964162        4.0320323329       -0.2919810272
 C       -13.3407693398        3.3085034429       -0.3882341437
 C       -12.7572989951        2.0980007711        0.3713088433
 O       -12.1701922752        1.2153927971       -0.1838822939
 C       -12.7514020118        2.0557887523        1.9481098576
 C       -11.8378640248        3.0148268767        2.8281993549
 C       -10.5129411706        2.4439092112        3.1213854103
 O        -9.6456084049        2.1773726439        2.2266820536
 C       -10.1905969811        2.0950066589        4.5396657532
 C       -10.5615666944        0.5237202376        4.7948109209
 O       -11.5914788820        0.3052467892        5.3647646957
 C        -9.8380030618       -0.6377759080        4.0719573062
 C       -10.4111356454       -2.0751574388        3.9207044970
 C       -11.2831866069       -2.1466157651        2.5928085287
 O       -11.9136495743       -1.2059176438        2.1916952719
 C       -11.2134928913       -3.5838265734        1.9370415842
 C       -10.0015208724       -3.3615861596        1.0601104489
 O        -8.9376639723       -3.3746130986        1.6608570358
 C       -10.0469515818       -2.7359054423       -0.4506871800
 C        -8.6683946438       -2.2292090839       -0.7966783418
 C        -8.3397139349       -0.6561777751       -0.7527477308
 O        -8.9892126966       -0.0251705675        0.0525516063
 C        -7.1273380791       -0.3535357898       -1.6635354492
 C        -6.8756101922        1.1765398280       -1.7882549910
 O        -7.2312345874        1.8744602834       -0.8649050081
 C        -5.9730898114        1.6945077820       -2.9330761199
 C        -5.8266366418       -1.0712460440       -1.1068021402
 C        -7.3248550042       -0.8883394690       -3.0694281917
 C       -10.8283693199       -4.8232809038        2.7635535119
 C       -12.4973227692       -3.7476876896        1.0495121376
 C        -8.7222273568        2.0073867078        4.9187816802
 C       -10.8972414008        3.0558898441        5.5725785199
 C       -14.6856418933        3.8745360157        0.2566243903
 C       -13.4823381395        3.0841215745       -1.8923440342
 C       -13.0485487318        9.7138315309       -0.9616153845
 C       -12.1740901648        9.9582441597       -3.2360532365
 C        -5.1400909090       11.2891409967       -2.5239306004
 C        -6.4702277344       12.9069629670       -3.7809266451
 H        -6.2966889640        9.9788953828       -6.2747115403
 H        -6.4771907527       11.8501010673       -5.8347001357
 H        -7.8533724147       10.7813853348       -5.9635244111
 H        -8.2975095383       10.4611818743       -0.1946880992
 H        -7.0091069103        9.6277570370       -1.2450847454
 H        -8.9843755155        8.3556215301       -1.8823861612
 H        -9.2766429285        9.8339370698       -2.9407146627
 H       -10.8200123059        7.2645741314        0.0796189475
 H       -10.6938081422        6.0862260177       -1.1670007404
 H       -13.2461573459        5.9177608003       -1.3207483580
 H       -12.9896400160        6.3171313326        0.5460691052
 H       -12.6228870568        1.0555040312        2.1884460646
 H       -13.7172153450        2.1323082763        2.5018040875
 H       -12.4349238844        3.3117499700        3.6798571842
 H       -11.6256514198        3.9265170448        2.2215496577
 H        -8.8948595667       -0.7881204079        4.6109874099
 H        -9.5507590243       -0.1075235110        3.1628753822
 H       -11.0444992195       -2.1823485377        4.7953147189
 H        -9.5484175627       -2.6958005144        4.0081826661
 H       -10.7913232675       -2.0286622331       -0.4340629869
 H       -10.3482210199       -3.4473117249       -1.2030781515
 H        -8.3707041159       -2.5167055016       -1.7407914579
 H        -7.8305676469       -2.5634251622       -0.0554386668
 H        -5.5414441260        2.5994307351       -2.6296965951
 H        -6.5279390153        1.7557682708       -3.8723510654
 H        -5.2857080697        0.9271273646       -2.9542597608
 H        -5.6661540867       -0.7511875092       -0.1474978787
 H        -4.9150962173       -0.7696769832       -1.6710367449
 H        -6.1575598383       -2.1212650190       -1.1549389860
 H        -6.5327965766       -0.6483707839       -3.6935509023
 H        -8.3788249726       -0.6689616297       -3.4822595770
 H        -7.4129290717       -2.0255487444       -3.1218490620
 H       -10.7116724654       -5.6200401945        2.1110370486
 H       -11.5206331187       -4.9807542825        3.6147185954
 H        -9.8249044691       -4.6986310296        3.1745234709
 H       -12.3733177602       -3.2183136250        0.0936317918
 H       -13.3792823319       -3.4845521748        1.6485457660
 H       -12.5463765155       -4.8120697041        0.7920382748
 H        -8.2204012350        1.5893016779        3.9607759198
 H        -8.4657600106        1.3160132842        5.7157033606
 H        -8.4018724064        2.9944511073        5.2186319135
 H       -10.5097293862        3.0803470919        6.6033090406
 H       -11.9218142079        2.7802017869        5.6802471525
 H       -10.7694282892        4.0578431656        5.1540510577
 H       -14.5637989846        4.7238228666        0.9395409330
 H       -15.0882897831        3.0177428460        0.8419544307
 H       -15.4130101446        4.0149128693       -0.5301515268
 H       -12.4773056792        2.7846041446       -2.2263961071
 H       -13.6305212621        4.0328008714       -2.4537243917
 H       -14.0966755110        2.2437832842       -2.0148631835
 H       -13.9346946695        9.2347943587       -1.3408868967
 H       -13.4203993708       10.7449022638       -1.1568066767
 H       -13.1622588062        9.3478726271        0.1779362279
 H       -11.5378969766        9.4507064148       -3.9182273426
 H       -12.1135157795       11.0628794162       -3.3361297644
 H       -13.2399220482        9.6452858738       -3.5963297658
 H        -5.2679343873       10.2075783377       -2.1145731602
 H        -4.8223210645       11.8082570325       -1.6621709715
 H        -4.2393419445       11.2715652078       -3.1730290770
 H        -5.8021765568       13.0806667859       -4.6052544262
 H        -6.2250359988       13.6680938114       -3.0556256612
 H        -7.5321987084       13.0950567391       -4.0617603286
 Na       -9.4643075668        2.2585390546        0.0216929658
