117

 C        -6.9633489118       10.5518243304       -5.9178446644
 C        -6.7789603054       10.1896841787       -4.3464358696
 O        -6.9791776405        9.0859265293       -3.8645423863
 C        -6.5827983761       11.3498290700       -3.4134747430
 C        -7.7392569648       11.5473593857       -2.2628676062
 O        -8.4202219946       12.5213749987       -2.2387774094
 C        -7.9767979140       10.2717364095       -1.3928522097
 C        -9.2337886127        9.7335869710       -2.0751299951
 C       -10.4576188148        9.8227618521       -1.2770855968
 O       -10.5358442708       10.0448210004       -0.0862505310
 C       -11.6900743932        9.3263409203       -2.0412239319
 C       -11.4340591448        7.7769329076       -2.2242946852
 O       -11.2399134881        7.3244206153       -3.2830974180
 C       -11.2351878528        6.8947972445       -0.9371471566
 C       -12.5396569951        6.0627259394       -0.5992057250
 C       -12.1833821056        4.6347577195       -0.2518422931
 O       -10.9984157326        4.3350246014       -0.0203089104
 C       -13.3512511553        3.4851028578       -0.2510532207
 C       -12.7702867388        2.2661295802        0.5144089200
 O       -12.0669484180        1.4930100389       -0.1570646439
 C       -12.8673727581        2.0931258260        2.0042672319
 C       -11.8862678380        3.1204500692        2.7358140874
 C       -10.5560833494        2.4761150324        3.1711949530
 O        -9.6640373225        2.5506660178        2.3608690785
 C       -10.2030189992        2.0954329968        4.5801554952
 C       -10.7363906891        0.6178787747        4.6674221571
 O       -11.7478345820        0.2257666429        5.2789977252
 C        -9.7581260035       -0.5132048556        4.0771830543
 C       -10.4448493250       -1.9364861947        4.0221654518
 C       -11.3387053476       -2.0286263757        2.8552818822
 O       -12.1498031401       -1.1254861399        2.6709235878
 C       -11.3361044696       -3.3186897518        2.0267358650
 C       -10.0012553073       -3.3593934821        1.0654942456
 O        -8.9743068228       -3.6602009533        1.5694666046
 C       -10.0860075173       -2.7299325379       -0.3655125546
 C        -8.7417047428       -2.4812106494       -0.9942628766
 C        -8.2191929235       -1.0655564457       -0.8668481291
 O        -8.7536235381       -0.3551135191       -0.0437118669
 C        -7.0686237427       -0.4247114999       -1.6717938004
 C        -7.0130228714        1.1874817059       -1.7484701889
 O        -7.5497130530        1.9472206634       -0.9643043582
 C        -5.8742891938        1.7206368748       -2.6344389345
 C        -5.8812067716       -0.8546313844       -0.7432422569
 C        -6.9924678787       -1.0375423739       -3.1472615448
 C       -11.2554170503       -4.6441579645        3.0769194877
 C       -12.5879405800       -3.7008441212        1.2061234469
 C        -8.7610915808        2.2288377013        4.7760529217
 C       -10.9483993791        2.8404178153        5.6659275265
 C       -14.7004324207        3.9765865391        0.4466040821
 C       -13.7390557399        3.0126901380       -1.6412338613
 C       -13.0044219464        9.6493675085       -1.2093603307
 C       -11.8015154480        9.9020194041       -3.5152389713
 C        -5.3090221886       10.9090687239       -2.4467663837
 C        -6.2812637339       12.8953382055       -3.9491882367
 H        -7.1744091871        9.6145448599       -6.4569845086
 H        -6.0575705295       10.9684615564       -6.2634667648
 H        -7.6604713497       11.2889874913       -6.1299348460
 H        -8.1104171207       10.5753122743       -0.3348794633
 H        -7.2400991779        9.5866199969       -1.4215155465
 H        -9.0082702205        8.7065078035       -2.1439430671
 H        -9.2679949120       10.2785993673       -3.0306365945
 H       -11.1139881392        7.6212898583       -0.1652797219
 H       -10.3351152073        6.2231653928       -0.9421614558
 H       -13.1717521109        6.0726120396       -1.4715509216
 H       -12.9151733371        6.5399044572        0.3096490489
 H       -12.4752970740        1.0424063398        2.2373051053
 H       -13.6960863196        1.9934738376        2.6273639965
 H       -12.4278041489        3.5262555041        3.6097449137
 H       -11.6476465353        3.9775470147        2.1054535455
 H        -8.8380351372       -0.5022685870        4.7004819736
 H        -9.4510878738       -0.3244365011        3.0226380796
 H       -10.9737538538       -2.1316610247        4.9824011266
 H        -9.6016617025       -2.6442904628        3.8517845138
 H       -10.8155219649       -1.8097497164       -0.4398674914
 H       -10.6042533511       -3.5324094507       -0.9587142230
 H        -8.5573987788       -2.6153755872       -2.1088101082
 H        -7.9915453680       -2.9919491360       -0.4213108581
 H        -6.1660885021        2.7970831736       -2.5971275572
 H        -5.9089416929        1.3759451595       -3.6584373924
 H        -4.8763071906        1.7051324875       -2.0671381789
 H        -6.1174949811       -0.3132765547        0.2129220086
 H        -4.9027152615       -0.4982637927       -1.1900991374
 H        -5.7937747516       -1.8800773018       -0.6863765552
 H        -5.9560759170       -0.8664550287       -3.5924069898
 H        -7.7713193587       -0.6216403591       -3.7340413706
 H        -7.1609404269       -2.1100238386       -3.2882015666
 H       -11.2444231758       -5.6142716094        2.4068409395
 H       -12.1598568999       -4.5811041385        3.7616198448
 H       -10.3143112375       -4.7496609222        3.6814564072
 H       -12.9352338402       -2.7124090668        0.7426524857
 H       -13.3555220960       -4.1184564921        1.8642861021
 H       -12.2998473178       -4.3213670541        0.3163544278
 H        -8.3389282993        1.5161486626        4.1714985239
 H        -8.5024562334        1.7830469362        5.7648814110
 H        -8.4767517404        3.2875526113        4.6574657706
 H       -10.7161551895        2.3358588116        6.5901709999
 H       -12.0425936613        2.5986755336        5.6257502585
 H       -10.6923663608        3.8641189251        5.8186507795
 H       -14.5939778823        4.9481803336        0.9095286891
 H       -15.0753131139        3.2381922023        1.1193596309
 H       -15.4677734396        4.0521907936       -0.3412550447
 H       -12.8296209787        2.8178948247       -2.3205423665
 H       -14.4193074667        3.6907169207       -2.1439913392
 H       -14.1693257120        2.0289504850       -1.3675170301
 H       -13.9954450006        9.7188016624       -1.5750529970
 H       -12.9753221722       10.6499008695       -0.8699603809
 H       -13.0705232810        8.9629873024       -0.4913831141
 H       -11.0092811586        9.6126994387       -4.2132033772
 H       -11.9156045491       11.0317078173       -3.2807248932
 H       -12.7007506992        9.6628261666       -3.9805486646
 H        -5.3661952578       10.0757777043       -1.9098524444
 H        -5.1300274490       11.6743557336       -1.6847582446
 H        -4.3370205733       10.8564966629       -2.9950602773
 H        -5.6161671928       12.8837888536       -4.8001186943
 H        -5.9511457724       13.5358851199       -3.0717298430
 H        -7.1807508699       13.2927426623       -4.3417671269
 Na       -9.5958224959        1.9805298218        0.1829630393
