117

 C        -7.0871153582       10.4544640917       -5.8374288008
 C        -6.8484903665       10.2093213590       -4.3842009533
 O        -7.0464501373        9.1247225720       -3.9928014907
 C        -6.4169377070       11.4194706244       -3.3534459910
 C        -7.5333861164       11.6066375151       -2.4208347516
 O        -8.3300839217       12.5200092947       -2.4476835280
 C        -7.9441804198       10.3373913341       -1.4217935347
 C        -9.1269972475        9.6275749280       -2.1092368304
 C       -10.4322062639        9.6727476370       -1.3615110090
 O       -10.5335380145        9.8980982432       -0.1379296402
 C       -11.6989148001        9.3295178555       -2.0993366003
 C       -11.4386860417        7.8007208291       -2.2839587832
 O       -10.9816649040        7.2358188149       -3.3291513337
 C       -11.3485658450        6.9573490909       -0.9018588820
 C       -12.5752778992        6.0461784744       -0.7123765430
 C       -12.1326150889        4.6308432882       -0.2640375784
 O       -10.9974775931        4.3143811522        0.0074006134
 C       -13.3412977284        3.5515658897       -0.1569216446
 C       -12.6022974471        2.3676976274        0.5736096761
 O       -11.9198963763        1.6541115497       -0.1113875925
 C       -12.8200816804        2.0817193362        2.0292844514
 C       -11.9716284078        3.1303428398        2.8575811471
 C       -10.5345177860        2.6926674759        3.1857054850
 O        -9.6157022282        2.6141526333        2.3709465236
 C       -10.2545461530        2.0040133995        4.6747701955
 C       -10.6999257022        0.4777165770        4.7737298928
 O       -11.8274995817        0.2733291248        5.1766895683
 C        -9.7725275557       -0.5143679416        4.1189921901
 C       -10.3221287535       -1.9377236390        3.9662176293
 C       -11.5222377833       -1.9843304682        2.9378079157
 O       -12.3177129769       -1.1566811253        2.6733629081
 C       -11.4034879076       -3.3310542186        2.0561209505
 C        -9.9892976945       -3.3907037854        1.2717588323
 O        -8.9808877819       -3.8658209410        1.7319603568
 C       -10.1035490586       -2.7941945339       -0.1954291274
 C        -8.8966852628       -2.5942658854       -1.2452590987
 C        -8.3343812697       -1.0439394576       -0.9266998418
 O        -8.8669416933       -0.4238380996       -0.0246619200
 C        -6.9224436522       -0.3846203408       -1.5543742313
 C        -6.9851374014        1.1320822230       -1.6800622638
 O        -7.8224644658        1.7945408499       -1.1460551076
 C        -5.8593992613        1.8087892173       -2.5451798640
 C        -5.7201644623       -0.8070975860       -0.6327660543
 C        -6.7883832961       -0.9622178891       -3.0385699237
 C       -11.2864743684       -4.5482949748        3.1303103762
 C       -12.6426645688       -3.3805753307        1.2073487109
 C        -8.7529098549        2.4168892386        4.7627382129
 C       -11.0700840696        2.7642711632        5.8343464677
 C       -14.5734137092        4.1418486359        0.5873193286
 C       -13.7389616889        3.0383264541       -1.6195347874
 C       -13.0296129797        9.4796737323       -1.4136194268
 C       -11.7893834933       10.0774557432       -3.5070176553
 C        -5.2451195501       10.8993322830       -2.5558088707
 C        -6.1913893168       12.6364853114       -4.0647847102
 H        -7.6080903261        9.6351241005       -6.3165899151
 H        -6.0252434322       10.4016498615       -6.1210868124
 H        -7.3493563855       11.4425782148       -6.1771474015
 H        -8.3191718842       10.8442922575       -0.5363240653
 H        -7.1752350301        9.6224318647       -0.9770363856
 H        -8.7965871965        8.6075286827       -2.3244699224
 H        -9.1886949831       10.2942522097       -2.9912308157
 H       -11.0532147534        7.6413764420       -0.0515339300
 H       -10.5761454675        6.2300024615       -1.0840113832
 H       -12.8975096684        5.9785300678       -1.7224144000
 H       -13.3253526231        6.3704276091        0.0029018865
 H       -12.6104359684        1.0302490462        2.3990758260
 H       -13.8377981058        2.1440682767        2.4287960418
 H       -12.4080791171        3.2946155709        3.8048845049
 H       -12.0774536846        4.0874675812        2.3099092947
 H        -8.8502828314       -0.4131426130        4.7384859252
 H        -9.5413916747       -0.2055078554        3.0903727184
 H       -10.7725384198       -2.1595684249        4.9486313122
 H        -9.4875153197       -2.6061055037        3.7635117182
 H       -10.5499088064       -1.7993262351       -0.1166374491
 H       -10.9278505022       -3.4008079155       -0.6972781362
 H        -9.1685334565       -2.4435528083       -2.2537166044
 H        -8.0705589651       -3.2458950369       -1.1539577899
 H        -6.1048344206        2.8609830260       -2.8301914614
 H        -5.8318676559        1.1727146169       -3.5120108450
 H        -4.9363286573        1.8905806434       -1.9421354481
 H        -5.8727208029       -0.2699992374        0.3010440380
 H        -4.7744284990       -0.4425598008       -1.2371483208
 H        -5.5373668291       -1.9298576962       -0.5730551081
 H        -5.8964710109       -0.7766775332       -3.4488305074
 H        -7.6365960918       -0.4972430945       -3.5517321870
 H        -6.9475537069       -2.0760227935       -3.1845386307
 H       -11.3669442272       -5.4962829325        2.6508007332
 H       -12.0578596221       -4.4792146791        3.9493647369
 H       -10.2822155234       -4.5077343242        3.5184552908
 H       -12.9081433718       -2.2861586330        1.1444298288
 H       -13.3821188723       -3.7428318618        1.8569096237
 H       -12.6192273628       -3.7428276108        0.2232720838
 H        -8.2107902518        1.7253909091        4.1055170414
 H        -8.3430181516        2.1149417847        5.7078561256
 H        -8.7344687277        3.4715451627        4.5279440939
 H       -10.8189313455        2.3519302329        6.8263674002
 H       -12.1861451175        2.7299398269        5.8793572611
 H       -10.6714482480        3.7416201820        5.8531568882
 H       -14.2009006201        4.9428833535        1.2055409377
 H       -15.1113348228        3.3554957535        1.1542986184
 H       -15.3028011148        4.5952750254       -0.0854547882
 H       -12.8816733901        2.6668345696       -2.2933355933
 H       -14.1871395769        3.9338178301       -2.0589863871
 H       -14.4694245089        2.3100261411       -1.4948821270
 H       -13.8838321038        9.4952525751       -1.9554825034
 H       -13.1841443277       10.4537436691       -0.9881166619
 H       -13.1861381928        8.5982347875       -0.6864402017
 H       -10.9445787476        9.8681889761       -4.0447394160
 H       -11.9011741355       11.1509546057       -3.2196439444
 H       -12.5755349139        9.8623649260       -4.2183728524
 H        -5.3816283616        9.7869553428       -2.3912416789
 H        -5.0714959725       11.2478185184       -1.5995143359
 H        -4.2846900225       11.0265546012       -3.1412025536
 H        -5.4601565534       12.5084873219       -4.8091571124
 H        -6.1037451375       13.5520496948       -3.4134146514
 H        -7.1013042317       12.7279785062       -4.7024219761
 Na       -9.7751878162        1.8663422979        0.1294589366
