117

 C        -7.5154284392       10.3790998095       -5.9324422565
 C        -6.7307042637        9.8653817429       -4.6047391856
 O        -6.5404777565        8.6710422734       -4.4487487001
 C        -6.0664966199       11.0410426376       -3.7568087616
 C        -7.2706037398       11.9045336663       -2.9428289853
 O        -7.6547921763       12.9124183424       -3.4821725515
 C        -7.9010108434       11.2003518472       -1.7810045858
 C        -8.6864704141        9.9557208231       -2.4846367951
 C        -9.9656812284        9.7636052709       -1.6477829242
 O       -10.2892415874       10.3530477535       -0.5992849741
 C       -11.1983252396        9.0905912473       -2.4636906911
 C       -11.1237916886        7.5166808217       -2.7112042049
 O       -11.0985778118        7.0614122867       -3.8236700816
 C       -11.1254070302        6.4770133058       -1.4094219227
 C       -12.1321005197        5.2673850405       -1.6509405079
 C       -12.0400409464        4.2232363013       -0.6436263747
 O       -10.8970324566        3.8993734929       -0.3989015378
 C       -13.2582299273        3.5729835878        0.0246096456
 C       -12.7986824265        2.3419776312        0.9039016943
 O       -12.1790248672        1.4574770824        0.2850660420
 C       -13.1701495884        2.2143519825        2.3713772240
 C       -12.1362336637        3.1486529933        3.1283530928
 C       -10.7452715983        2.6846060603        3.4382840915
 O        -9.9834864057        2.4233202273        2.5241909937
 C       -10.3201990444        2.1408487079        4.9330970276
 C       -10.6993527932        0.6427682857        4.9705543237
 O       -11.6235443198        0.2085865846        5.5550526536
 C        -9.6073022322       -0.2678446238        4.3606145112
 C       -10.2158059698       -1.6506812292        3.8898981166
 C       -11.4348942090       -1.6236247669        2.9278278822
 O       -11.9441701604       -0.6225699520        2.4961307975
 C       -11.7546998352       -3.0699017510        2.2303950939
 C       -10.3472732037       -3.2663013559        1.3232697069
 O        -9.3620940919       -3.7719655071        1.6998727779
 C       -10.3972840605       -2.8566784268       -0.1401748000
 C        -9.0203694330       -2.4072459293       -0.7295564683
 C        -8.6062741930       -0.9456348143       -0.3279031368
 O        -9.3078635142       -0.2180126387        0.2973129249
 C        -7.2447812342       -0.3688521808       -0.8755860947
 C        -7.4574238205        1.0516025559       -1.5070348527
 O        -8.5262982455        1.3572997713       -2.0269586254
 C        -6.2003425467        2.0599515101       -1.5777153737
 C        -6.0615002436       -0.4091288945        0.1533016587
 C        -6.6719720316       -1.2227323987       -2.1356323214
 C       -11.8348045558       -4.2891411252        3.2352306395
 C       -13.0541444826       -3.1031256686        1.4033413121
 C        -8.7818454563        2.3831515695        5.2302169368
 C       -11.2695888174        2.8333740453        6.1213971749
 C       -13.9560998003        4.6839941491        0.9009891378
 C       -14.3566207059        3.1299884843       -0.9920757918
 C       -12.5754780796        9.2934578013       -1.7270542068
 C       -11.2646920620        9.8516891080       -3.7244702649
 C        -5.0357062622       10.4772993572       -2.7808215133
 C        -5.3998558579       11.8916215586       -4.8328579888
 H        -8.3318299730        9.5496742665       -6.0732599006
 H        -6.9226385292       10.5815750023       -6.8430191472
 H        -8.0219890636       11.2951392654       -5.5844741944
 H        -8.5070705899       11.8486799535       -1.0222384452
 H        -7.2991553130       10.7985531671       -0.9964709832
 H        -7.9260817265        9.1785005913       -2.3099498424
 H        -8.8269750693       10.2363571365       -3.5383371545
 H       -11.6627487972        7.0539741817       -0.7237964117
 H       -10.1058149151        6.1443524460       -1.0742860891
 H       -12.2179596213        4.9201056860       -2.7085198461
 H       -13.1623813794        5.6961111137       -1.5063306529
 H       -13.1497354571        1.1753301917        2.7463045095
 H       -13.9955407516        2.7677779845        2.7586063486
 H       -12.5912110956        3.4268503713        4.1096476137
 H       -12.0695018281        4.0333948058        2.5329720587
 H        -8.8262786489       -0.5006650843        5.0637521932
 H        -9.3084890485        0.2972868346        3.4685534400
 H       -10.3941718214       -2.1773444553        4.7853250117
 H        -9.3319967806       -2.0201341952        3.3904443877
 H       -11.2042469848       -2.2063264597       -0.4618315535
 H       -10.6160593727       -3.7469534147       -0.6161501721
 H        -9.0377319506       -2.5455332414       -1.8971137953
 H        -8.2649753830       -3.0745805064       -0.3275791915
 H        -6.1560687982        2.6264116337       -2.5066472739
 H        -5.2677371964        1.5176993491       -1.5395256393
 H        -6.4048963015        2.7289554709       -0.6767838690
 H        -6.1407309382        0.3273554043        0.9415282544
 H        -5.0837954864       -0.5507374421       -0.4474141896
 H        -6.2340028397       -1.2781052352        0.7203802246
 H        -5.6981822482       -0.8848077214       -2.4676460850
 H        -7.3042495336       -1.0254846957       -2.9994962900
 H        -6.7040624630       -2.2798938715       -1.7317701231
 H       -11.9608250721       -5.2853359815        2.8188914273
 H       -12.7407920018       -4.2701588428        3.7676418425
 H       -11.0266556149       -4.2639338308        3.8922504048
 H       -13.0425958192       -2.0768390991        0.9424824027
 H       -13.9502768339       -3.1621505647        1.9551075949
 H       -13.0505548378       -3.7334766528        0.5735703498
 H        -8.1494778857        1.8531942483        4.5670017402
 H        -8.5846092184        2.1319454536        6.3285603539
 H        -8.6823657962        3.4155683055        4.8802015731
 H       -10.9228649561        2.5626109778        7.0902034923
 H       -12.3301029197        2.5623073462        5.8900863959
 H       -11.2546292868        3.9107289252        6.2051367740
 H       -13.1585598916        5.1088319026        1.5294378115
 H       -14.5928531470        4.2171429455        1.6440260943
 H       -14.4801806522        5.5674458451        0.4411932181
 H       -13.8464235190        2.5111050306       -1.7595037033
 H       -14.9948680143        3.8636772675       -1.2467910951
 H       -15.0530054003        2.4678956143       -0.5279087722
 H       -13.3781378196        8.5319414767       -1.9611613632
 H       -13.0334521950       10.3739791290       -1.6912185813
 H       -12.4512540625        9.2982705911       -0.6302028008
 H       -10.4222715460        9.7298611538       -4.4054190069
 H       -11.4456023581       11.0481011050       -3.6321610495
 H       -12.1735359619        9.5139793206       -4.1861535268
 H        -5.5163866779        9.8889858582       -2.0444815487
 H        -4.4490544722       11.2312543816       -2.2592641322
 H        -4.2729932613        9.7716176725       -3.3200606068
 H        -4.8647856263       11.1733105558       -5.4978077603
 H        -4.6890028524       12.7400453589       -4.5139305311
 H        -6.2581477394       12.2795835636       -5.3125785780
 Na       -9.7984444981        1.7159043648        0.2892436258
