117

 C        -7.6746010127       10.2365962796       -5.7863195367
 C        -6.7259759602        9.8831569061       -4.7156662174
 O        -6.4866841757        8.7602098147       -4.4596542794
 C        -6.0262515392       10.9694741602       -3.8959050993
 C        -7.1411387662       11.8036285786       -3.1773136454
 O        -7.4112202190       12.8890423176       -3.6795578325
 C        -7.8689200120       11.2973246185       -2.0421515516
 C        -8.6595314063        9.9579096818       -2.4357936972
 C        -9.9906271723        9.8291252239       -1.8170888873
 O       -10.1807592091       10.3981236310       -0.6950114334
 C       -11.1707691887        8.9907490610       -2.4743836903
 C       -11.0974728050        7.4851558703       -2.7130635385
 O       -11.1311316482        6.9786895590       -3.8411300876
 C       -11.2733587346        6.5218935134       -1.5537479148
 C       -12.2145250034        5.4026186190       -1.8491390125
 C       -11.9113322615        4.2202036052       -0.7944614515
 O       -10.8211803409        3.8409792789       -0.4681303213
 C       -13.2329595535        3.6081301882        0.0521160815
 C       -12.7502918268        2.4016068343        0.9036561857
 O       -12.1224324411        1.4785086911        0.4041391933
 C       -13.1535867327        2.3662396979        2.3572222562
 C       -12.2291025955        3.3956910482        3.2054348262
 C       -10.8302037132        2.6113487785        3.4931132202
 O       -10.0777716061        2.3982554509        2.5760369947
 C       -10.3496153432        2.2362987424        4.8688177392
 C       -10.5371121539        0.5145992262        5.0246179106
 O       -11.4762775805        0.1273275205        5.7417648631
 C        -9.6217156371       -0.4308387997        4.3036274735
 C       -10.3286140555       -1.7334722490        4.0399384585
 C       -11.3115908409       -1.6237735789        2.8962632447
 O       -11.8504150353       -0.6275780519        2.4832173154
 C       -11.6844601185       -2.9929366560        2.2774010673
 C       -10.5091019559       -3.2792624423        1.3855576230
 O        -9.4646398790       -3.7648302759        1.7932800357
 C       -10.5263241565       -2.7827013058       -0.2303142668
 C        -9.1070143739       -2.4337430747       -0.7580824007
 C        -8.5957294268       -0.9805392263       -0.3974655168
 O        -9.4137687041       -0.4040516250        0.3213623583
 C        -7.1510039708       -0.3878745853       -0.8898261780
 C        -7.4137614269        1.0489113777       -1.4499529924
 O        -8.5446827411        1.3972568098       -1.7181090851
 C        -6.4199306074        2.2562789689       -1.5308003280
 C        -6.2322377088       -0.2897002637        0.3746361228
 C        -6.6043843325       -1.2666082814       -2.1037855902
 C       -12.0459137759       -4.0970385881        3.3996921688
 C       -12.9091132376       -3.1273407444        1.4451695920
 C        -8.8876136901        2.3503567004        5.3443923947
 C       -11.2814766158        2.8786467152        5.9830807702
 C       -13.9012106037        4.7869198163        0.8519869736
 C       -14.3386212616        3.1446909060       -0.9321851126
 C       -12.3580286965        9.2026221700       -1.5763828456
 C       -11.2820430481        9.7028590198       -3.9429607819
 C        -5.0671326227       10.3148329409       -2.7412886679
 C        -5.2462550099       11.9484420188       -4.8495880781
 H        -8.1630365524        9.3646149566       -6.2258045879
 H        -7.0265274046       10.8652471388       -6.4694938729
 H        -8.3655617766       11.0038088609       -5.2852079960
 H        -8.5980390149       12.0386772032       -1.7706079463
 H        -7.4288102658       11.2481933437       -1.0589783048
 H        -8.0715833587        9.1497335414       -1.9463854733
 H        -8.5936328416        9.8962367113       -3.5517541827
 H       -11.4968741389        7.1239488802       -0.6922914492
 H       -10.3881956653        5.9033643290       -1.4327872968
 H       -11.8476440735        5.0736062978       -2.8506557090
 H       -13.3184925715        5.4996505575       -2.0931844994
 H       -12.8472753926        1.3722356099        2.7318847445
 H       -14.0988058876        2.6753529168        2.6496513174
 H       -12.7048553571        3.6686964005        4.1284456870
 H       -11.9256356460        4.3290256210        2.6211480801
 H        -8.9232469901       -0.6740014761        5.1287330764
 H        -9.1170313410       -0.0105859072        3.4485854115
 H       -10.9310562534       -1.8780542331        4.9504243999
 H        -9.4846083724       -2.4081307220        3.9933647315
 H       -11.0919471860       -1.9185123124       -0.4876596170
 H       -10.9001187193       -3.5686963175       -0.8645358728
 H        -9.2598021098       -2.4296681729       -1.8915730812
 H        -8.3419339584       -3.2543767974       -0.5261190644
 H        -6.3325372474        2.7067672948       -2.4788280897
 H        -5.4604710181        1.7726395469       -1.3497395252
 H        -6.7336168642        2.9007396182       -0.7843595119
 H        -6.6753086916        0.3742232188        1.0006418237
 H        -5.2390500246       -0.0050988566        0.0790266424
 H        -6.2612371767       -1.1854486398        0.9686336194
 H        -5.6340199689       -1.0321002659       -2.3248543392
 H        -7.1407433670       -0.8110686023       -2.9768968718
 H        -6.8326599123       -2.3867230230       -1.9270016589
 H       -12.4604008176       -5.0277871670        3.1445403819
 H       -12.7985690708       -3.6424865437        4.1219169390
 H       -11.1767235620       -4.2627702329        4.0527984174
 H       -13.1912054407       -2.2232343263        0.8720274492
 H       -13.7906695111       -3.3749821796        2.0671703117
 H       -12.9105847124       -3.9370762404        0.6854931883
 H        -8.3484999049        1.6358851190        4.6871818276
 H        -8.8268315420        2.1182742783        6.4184444112
 H        -8.5117572454        3.3184435506        4.9994664108
 H       -10.8880669644        2.4992828407        6.9124425900
 H       -12.3935778817        2.8647945129        5.8417929206
 H       -11.0513071823        3.8790802556        6.1420545351
 H       -13.0960319759        5.4949782196        1.0855300994
 H       -14.3587539920        4.5835067268        1.8485158884
 H       -14.6166976983        5.3731868604        0.2394202611
 H       -14.0175664535        2.2328739672       -1.4792904722
 H       -14.7785998754        4.0089034735       -1.5092359116
 H       -15.1772159443        2.8618834025       -0.3649682388
 H       -13.2334238905        8.7489172466       -1.8529699373
 H       -12.4582464625       10.2145057269       -1.3065800032
 H       -12.1572594516        8.9624480481       -0.4572405762
 H       -10.5017666158        9.2225327679       -4.5816924227
 H       -11.0426577690       10.7104151509       -3.9812494670
 H       -12.3676717345        9.6143793018       -4.4197584015
 H        -5.6161428434        9.6027718544       -2.0675286770
 H        -4.6258491671       11.0390973057       -2.1850949050
 H        -4.2709298290        9.7455709785       -3.2135619994
 H        -4.4550704202       11.4321628266       -5.2939034292
 H        -4.8383824273       12.8681648359       -4.3591314111
 H        -6.0450564344       12.2791854600       -5.5227150051
 Na       -9.9015670333        1.6617533787        0.2929342490
