117

 C       -13.9881737908        4.2848238014       -8.3683457149
 C       -12.5130329563        4.0254820336       -8.5188399291
 O       -11.7073296885        4.9523828983       -8.5593618974
 C       -12.0394029525        2.6093842940       -8.6792738475
 C       -10.9825924510        2.3416996382       -7.4692468798
 O       -11.2141137744        1.4267631353       -6.7352591471
 C        -9.7014742741        3.1701062856       -7.1998861917
 C        -8.7013850253        2.4946650981       -6.1536182810
 C        -9.1499434396        2.8400172690       -4.7055845331
 O       -10.2355090143        3.3675055236       -4.5714207155
 C        -8.1822861034        2.3247087310       -3.5300001621
 C        -7.8897401479        3.5812648288       -2.6687658518
 O        -6.7932963002        3.9289485689       -2.3159575766
 C        -9.0536179694        4.5374644922       -2.2604415960
 C        -8.5862938632        5.8919844936       -1.6759122095
 C        -7.9152963245        5.6862058450       -0.2047077688
 O        -7.9301359050        4.6582743305        0.4248310278
 C        -7.3360755434        6.9637840804        0.5571500601
 C        -8.2702115641        7.5725450538        1.6772750630
 O        -9.4739876636        7.4970080817        1.6586782513
 C        -7.5985808137        8.1765137110        2.9311083240
 C        -8.6542518738        8.2784936903        4.0985170988
 C        -9.2351466115        6.8819710837        4.2759916069
 O        -8.4029129554        5.9842170262        4.2760369612
 C       -10.7287816588        6.6276808776        4.6277064617
 C       -11.0835877181        5.0774885602        4.5319606975
 O       -10.3920983241        4.1677895124        4.1054249977
 C       -12.3754900333        4.8139969229        5.3989722503
 C       -12.7621699425        3.2978187905        5.2780205620
 C       -13.1610132598        2.9592985691        3.8656996391
 O       -13.2331743289        3.8303610087        3.0460271985
 C       -13.3769770595        1.4969060162        3.4296199244
 C       -11.8664643339        0.9758914114        3.1681854713
 O       -11.1452593145        0.6709223698        4.1670405633
 C       -11.3269572398        0.3740407250        1.7895065336
 C        -9.8202263001        0.0558588634        1.8769420836
 C        -8.7426430319        1.1215958959        1.8205085660
 O        -9.1752741697        2.2753394752        1.7108728851
 C        -7.2428870328        0.8043790297        2.0409015918
 C        -6.9985567316        1.1429887554        3.5303361834
 O        -7.3329754534        2.2866723259        3.8764883742
 C        -6.3411843016        0.1162293283        4.4374914628
 C        -6.9720980692       -0.5799813089        1.6087606349
 C        -6.3103336970        1.7835182581        1.2840198765
 C       -13.9849119744        0.7020727075        4.5817992693
 C       -14.2054335496        1.4768725894        2.0993311573
 C       -10.6525726364        6.9933244923        6.1439271034
 C       -11.6722873436        7.5557734650        3.8616452939
 C        -6.0445431775        6.4534401232        1.3551372997
 C        -7.0289248931        8.1939939085       -0.3287089107
 C        -8.9921475635        1.2722090884       -2.7409023946
 C        -6.8941310746        1.6470866160       -3.9515339733
 C       -13.0434530597        1.4479314963       -8.6059102558
 C       -11.1236417124        2.6321930818      -10.0333081121
 H       -14.0486158210        5.3061226399       -8.5927651293
 H       -14.3124161483        3.9849972695       -7.3422511984
 H       -14.6929297886        3.6943004064       -8.9229300788
 H        -9.9298683486        4.2052925549       -7.0060676466
 H        -9.2579386750        3.0993770847       -8.1604097986
 H        -7.6808247319        2.8529130131       -6.2599642212
 H        -8.8668816881        1.3790378796       -6.1375757426
 H        -9.7763542783        4.1444465606       -1.5761268137
 H        -9.6545531339        4.7986049582       -3.1066780463
 H        -9.4507925701        6.5226553532       -1.4818836373
 H        -7.9278034085        6.3092367435       -2.4338934907
 H        -7.2641671444        9.2077698999        2.7575834238
 H        -6.8685348861        7.5631957984        3.3184638272
 H        -9.4713024456        8.9758571610        3.9511222013
 H        -8.0827959706        8.5395821617        5.0266487275
 H       -13.2151460125        5.4586719999        5.1040056805
 H       -12.1763313115        5.0734390662        6.4137736755
 H       -13.5681737172        3.0769893501        5.9347830048
 H       -11.8819623968        2.7917006043        5.5587991253
 H       -11.6558821992        1.0154202041        0.9710522350
 H       -11.7564552056       -0.5938486004        1.6421595222
 H        -9.6535504554       -0.7226361201        1.0004311352
 H        -9.7506193629       -0.5675023601        2.8309860698
 H        -6.1341716895        0.6183841289        5.4220011116
 H        -5.4186102972       -0.2025510262        3.9725611387
 H        -6.9547013776       -0.8022250589        4.6602192389
 H        -7.3786516695       -0.7980290135        0.6197719131
 H        -7.3402268900       -1.2366301708        2.4194025846
 H        -5.9700827944       -0.6759594480        1.4039391984
 H        -6.4960197414        2.7330382399        1.6521399338
 H        -6.4767199411        1.9018948750        0.1887986733
 H        -5.2921718579        1.3197191639        1.3613471232
 H       -13.2038284476        0.1251770774        5.1407817747
 H       -14.7145110779       -0.0209690317        4.2093980725
 H       -14.6826931557        1.3094773121        5.1197111045
 H       -15.3251103891        1.6358994909        2.2870521110
 H       -14.1813305663        0.5543831144        1.5641445800
 H       -13.6631166357        2.1023712819        1.3412206260
 H       -10.0531888798        7.9075406434        6.2966464752
 H       -10.1990971355        6.1279353320        6.7524377891
 H       -11.6555195096        7.0185223316        6.4877445788
 H       -11.8393209149        7.1477917375        2.8153526026
 H       -11.5040798823        8.6269579594        3.8680012860
 H       -12.6993588520        7.5663236924        4.3621285054
 H        -5.3783117032        7.2122323488        1.6589514908
 H        -5.3494125138        5.8284745183        0.8052140083
 H        -6.4714595665        5.7941371914        2.1956762166
 H        -6.3029737491        8.0408319940       -1.1076323825
 H        -6.5398520685        8.9401393429        0.3211621524
 H        -7.9111409016        8.5727396175       -0.9847674121
 H        -9.4379281561        0.5750994011       -3.4478588682
 H        -9.7026532826        1.6729356849       -1.9848875554
 H        -8.2844958450        0.7569036218       -2.0845052368
 H        -7.0006504804        0.8328913706       -4.6392483328
 H        -6.4319681277        1.2456070411       -3.0469872811
 H        -6.1865246681        2.3245326064       -4.3792295004
 H       -13.2761619502        1.2741796914       -7.5905821647
 H       -12.6163380996        0.4893125657       -8.8902562443
 H       -13.9095989473        1.5475440367       -9.2481817185
 H       -10.4528012781        3.5236288475       -9.9674235553
 H       -11.9002071524        2.7053457325      -10.7716525185
 H       -10.6049481629        1.6879593458      -10.0703621184
 Na       -8.3069136806        4.1679928076        2.7871815803
