117

 C        -7.1541702829       10.0726306578       -6.4385522457
 C        -6.3628456842        9.5032591224       -5.2215847622
 O        -5.9618949759        8.3195606373       -5.1602873000
 C        -5.9033110570       10.5791535215       -4.2162862101
 C        -7.0721153710       11.6550492978       -3.9458044212
 O        -6.8156839273       12.8226054201       -4.1846868699
 C        -8.3615765937       11.3950985279       -3.2056334072
 C        -8.5938204486       10.0225001420       -2.7930616682
 C        -9.8267356523        9.7178003811       -1.9694423591
 O        -9.8560380256        9.7338556784       -0.8122443716
 C       -11.2987494050        9.1381079087       -2.7957786982
 C       -10.8728511250        7.7460698351       -2.9802637655
 O       -10.4507090230        7.2707904071       -4.0455747887
 C       -11.1613678869        6.6825960370       -1.5769792638
 C       -11.8102061811        5.3702618505       -1.9758620610
 C       -11.8339213765        4.2382348739       -0.9616511159
 O       -10.9077047050        3.4251832885       -0.8363113505
 C       -13.1699000116        3.9659330175       -0.1188581214
 C       -12.9796062957        2.7430648220        0.8696263935
 O       -12.7589985606        1.5962919395        0.5221335854
 C       -13.0681193439        2.9487868886        2.5047639564
 C       -11.9784425671        3.6799154875        3.3304580935
 C       -10.7529567775        2.7135156117        3.7644741143
 O       -10.0797898422        2.0444196894        2.9554808498
 C       -10.4178023651        2.3633460323        5.2253565023
 C       -10.5627371575        0.5722153085        5.3585497595
 O       -11.1078868737        0.1788096381        6.3017849437
 C        -9.5448509496       -0.4442203832        4.5709192664
 C       -10.2974955501       -1.8114292595        4.1292831167
 C       -11.2249363315       -1.6200363882        3.0202868376
 O       -11.7433678909       -0.5669940720        2.7778320568
 C       -11.8395309677       -2.9766948533        2.1987978685
 C       -10.6777546477       -3.2908430624        1.2172924417
 O        -9.7419711281       -3.7813577137        1.8185447301
 C       -10.5344294515       -3.0094480678       -0.2574180023
 C        -9.1282989624       -2.4168517826       -0.5458382119
 C        -8.8712726997       -1.1233552374        0.1519369565
 O        -9.8765135491       -0.5334653861        0.5955550427
 C        -7.5338775671       -0.4828817576       -0.1846809312
 C        -7.8042797668        1.0536716780       -0.9035266558
 O        -8.8892119435        1.4508145420       -1.1584052076
 C        -6.6032999374        1.9278684030       -1.4614012066
 C        -6.5632007290       -0.2845549723        1.0163906596
 C        -6.8316535168       -1.3247147365       -1.3198402378
 C       -12.0819984287       -4.1102720750        3.1414257832
 C       -13.0762551999       -2.6679402480        1.4717258660
 C        -8.8594241577        2.6798393322        5.7125252048
 C       -11.3143050827        3.1782476749        6.1944509862
 C       -13.6704124379        5.2228536927        0.5964965777
 C       -14.3059300574        3.5602969559       -1.2149481519
 C       -12.5221747843        9.4638889493       -1.8468450290
 C       -11.4937690210        9.8264535747       -4.0738294571
 C        -5.2129958711       10.0669832116       -2.8448820267
 C        -4.7614266113       11.3160986112       -5.0260120227
 H        -7.4701071239        9.1653162040       -7.0699747904
 H        -6.3010917635       10.6323475951       -6.9154187154
 H        -7.8908343662       10.8398815353       -6.1154157186
 H        -9.2550372209       11.5984953380       -3.6634114548
 H        -8.3972748609       11.9462657370       -2.2916801926
 H        -7.7033355071        9.4972492339       -2.4500871263
 H        -8.6824074886        9.4119538424       -3.6986746585
 H       -11.5966657492        7.3270478066       -0.7892553450
 H       -10.2123476505        6.4110453574       -1.2172776417
 H       -11.2577649870        4.9377630151       -2.8655403526
 H       -12.7312568300        5.4887859910       -2.5430390523
 H       -13.1588648552        1.9613145952        2.8618078473
 H       -13.9551729309        3.5846393172        2.6471312742
 H       -12.2650514879        4.1018079864        4.3077877935
 H       -11.4822843585        4.5400468643        2.7960879309
 H        -8.6206377138       -0.5650641433        5.1380386132
 H        -9.3680982287        0.0539001532        3.6284089275
 H       -10.6679705706       -2.1995318862        5.0958045244
 H        -9.5385937624       -2.5303527513        3.7582190497
 H       -11.2559809335       -2.3470579669       -0.7132895263
 H       -10.5389137403       -3.9183418274       -0.8678079461
 H        -8.9818732040       -2.4940056416       -1.6362473997
 H        -8.5327285832       -3.3608394006       -0.2097424809
 H        -6.4028104958        1.5670828331       -2.4592311975
 H        -5.7763912583        1.8544525161       -0.8466162130
 H        -6.9701921554        2.9316011937       -1.5995766582
 H        -6.7974739225        0.5549723538        1.6662606674
 H        -5.5544651194       -0.0924748347        0.7535516474
 H        -6.5777610320       -1.1805164242        1.4800910920
 H        -5.6626683787       -1.0587720325       -1.2030176735
 H        -7.2941352849       -1.2538196864       -2.3278869875
 H        -6.8752987367       -2.2802681470       -0.8776208634
 H       -12.0397973739       -5.0820103465        2.5840037954
 H       -13.0622228079       -3.9746792020        3.4677086508
 H       -11.5344339813       -4.2740975640        4.0366123709
 H       -12.9808559424       -1.6614379914        1.0377950673
 H       -14.0445835098       -2.6994338709        1.9687815731
 H       -13.4158508057       -3.3346336397        0.6730816232
 H        -8.1080194002        2.1431257362        5.0838553248
 H        -8.9066209149        2.5306473269        6.7749720868
 H        -8.7486319094        3.7679232713        5.7089172659
 H       -11.2324238292        2.7653298224        7.2118093531
 H       -12.3424525822        3.1060334433        6.0283869876
 H       -11.1071793107        4.2907085683        6.1728105747
 H       -13.0064561213        5.4808943541        1.4687034623
 H       -14.6999803598        5.2120607093        0.9796739524
 H       -13.6924315217        6.0651981701       -0.0775568795
 H       -13.7350866877        2.9362054248       -1.8719575234
 H       -14.6576615785        4.3910184790       -1.8318708520
 H       -15.0144254576        2.8527954738       -0.6823031329
 H       -13.3579546683        8.7659996607       -2.1135463727
 H       -12.9183091594       10.4941824971       -2.1658113470
 H       -12.3980401610        9.3632896575       -0.8342988935
 H       -10.5968714436       10.1867261335       -4.5485977015
 H       -11.9962540535       10.8879055920       -3.9641814686
 H       -11.9812980877        9.2313991899       -4.7105811834
 H        -5.8241174117        9.9049463895       -2.0633130093
 H        -4.4023620560       10.7918342969       -2.6036696014
 H        -4.7752638885        9.0873359884       -3.0856364964
 H        -4.0221942855       10.5938380098       -5.4823519409
 H        -4.2466697154       11.8212980543       -4.2696897185
 H        -5.1165205794       12.1591107858       -5.6129644919
 Na      -10.3750688880        1.5164697437        0.7546085818
