117

 C        -6.5422629869        9.8347286105       -6.9212045412
 C        -6.1142761704        9.2342968160       -5.5806046675
 O        -6.1018876115        7.9986397932       -5.3832807465
 C        -5.6724442028       10.3299151133       -4.5691827068
 C        -6.8909775042       11.4457482081       -4.3269543271
 O        -6.6593536360       12.6278285672       -4.5586381586
 C        -8.3403164263       10.9531223641       -3.7831546724
 C        -8.5497496310        9.6349683643       -3.2196122729
 C        -9.7601600094        9.5995408774       -2.1527270911
 O        -9.6720202143        9.5549594075       -0.9521212807
 C       -11.1848293376        9.1080994807       -2.8725010174
 C       -10.9878398170        7.5465769001       -2.9041612051
 O       -10.3637918828        6.9490486027       -3.7913886591
 C       -11.2411948811        6.7964032129       -1.6993663473
 C       -11.6763730678        5.4044166819       -1.9770588374
 C       -11.7178720567        4.4807980532       -0.7541436120
 O       -10.7449329009        3.9517131793       -0.2853632672
 C       -13.1459168463        4.2984700611       -0.0577273751
 C       -13.0490423668        3.0067137984        0.9753398982
 O       -12.9126989697        1.9096076504        0.5087175506
 C       -13.0683420360        3.3455959811        2.5718890313
 C       -11.6661503317        3.7326183520        3.0648689156
 C       -10.7984212459        2.5250914528        3.6250362134
 O       -10.0136675947        2.0248029690        2.7878264007
 C       -10.4845879567        2.2597422473        5.1152754468
 C       -10.5730480253        0.6454327334        5.3808032269
 O       -11.4352378562        0.2259598882        6.1178763967
 C        -9.5891177414       -0.3951527500        4.6868415415
 C       -10.4718125295       -1.6188661920        4.2649930308
 C       -11.5249921701       -1.2914587706        3.2072821484
 O       -11.8802135553       -0.1935662323        2.9189823638
 C       -12.0121264209       -2.6312607927        2.3596724554
 C       -10.6631729606       -3.1658002129        1.4802478831
 O        -9.7644462841       -3.4515574006        2.1944862534
 C       -10.5221176208       -3.2966223067       -0.0017977700
 C        -9.3065001277       -2.5862145437       -0.6227664831
 C        -9.0341404320       -1.2717793154        0.0134913279
 O        -9.9654746536       -0.8336556809        0.6770675369
 C        -7.5829538278       -0.4349175846       -0.0381078491
 C        -7.7747663961        0.9431005132       -0.7314389078
 O        -8.8347292137        1.4896813735       -0.5889889878
 C        -6.5611328022        1.6667352306       -1.4856648217
 C        -6.9180029935       -0.3003965795        1.4231228659
 C        -6.4515420554       -1.4395084059       -0.6431565776
 C       -12.1268340485       -3.6597288758        3.4777958343
 C       -13.4059608891       -2.2524886374        1.6093461640
 C        -9.0677962663        2.7262038569        5.6117506838
 C       -11.5485684572        3.0481314193        5.9087659835
 C       -13.2835890388        5.6424537123        0.7392018078
 C       -14.3440340428        4.0778994532       -0.9829739121
 C       -12.4343178544        9.3819647103       -2.0304610731
 C       -11.4618228723        9.6903883185       -4.3032249666
 C        -5.0923227877        9.9138054714       -3.0834218498
 C        -4.5436176825       11.0988978198       -5.3067170422
 H        -7.3393037003        9.1080936454       -7.3572008594
 H        -5.6272402001        9.7004432065       -7.4997983596
 H        -6.9602654495       10.8154349822       -6.7381283987
 H        -9.0926819404       11.1856366767       -4.5167706955
 H        -8.5852062664       11.5587309876       -2.9354540835
 H        -7.5581689017        9.3245742196       -2.7932357870
 H        -8.4699733544        8.7954559570       -3.9207892949
 H       -11.8799333558        7.3612316766       -1.1090673862
 H       -10.4301053557        6.9014828111       -1.0765572148
 H       -10.8804944020        5.0527122748       -2.7188242277
 H       -12.5754058348        5.3570552938       -2.6190558270
 H       -13.5498197182        2.5349641369        3.0258735540
 H       -13.6748124813        4.2579397590        2.7865617573
 H       -11.5740208610        4.5562804424        3.8241009053
 H       -11.0351788742        4.0644223800        2.2325418558
 H        -8.9101306956       -0.6993748102        5.4793536296
 H        -8.9167382471       -0.1052971209        3.8874608705
 H       -10.9704556380       -2.0853563982        5.1197056867
 H        -9.7669446507       -2.3903901928        3.9660036260
 H       -11.2650152066       -2.8127836990       -0.6409322214
 H       -10.6613586647       -4.3155630597       -0.1728732749
 H        -9.3410163132       -2.7502880267       -1.7268454442
 H        -8.4026719170       -3.2492006857       -0.3796075084
 H        -6.0185894329        0.9892227981       -2.1466965250
 H        -5.9724677711        2.2414995086       -0.7618116045
 H        -7.0022610444        2.4933348390       -2.1417213768
 H        -7.4276266856        0.4736072243        1.9116261340
 H        -5.9201289763        0.1877587603        1.2871305162
 H        -6.7761301301       -1.1642923956        1.9858608091
 H        -5.6211099426       -0.8232576065       -0.4618212971
 H        -6.8405835947       -1.8223548646       -1.6017134678
 H        -6.2539048830       -2.3659963360       -0.0419647549
 H       -12.8688402808       -4.4122805032        3.2376286247
 H       -12.4295617477       -3.3261124979        4.4134297755
 H       -11.2587600818       -4.1887353139        3.5571118828
 H       -13.3058800574       -1.4993187650        0.7522558538
 H       -14.1305711827       -1.7726104317        2.1614619861
 H       -13.8383989992       -3.0262350652        1.0449740213
 H        -8.3967202889        2.3871845965        4.8554998699
 H        -8.8297712734        2.2473468519        6.5912136048
 H        -9.1764005652        3.8253731322        5.7868823681
 H       -11.5662392188        2.9323760250        6.9550020418
 H       -12.4495452808        2.4809846375        5.8167654660
 H       -11.7452720545        4.1070455205        5.6283298305
 H       -12.4859072518        6.0312958096        1.3922366382
 H       -14.2094686107        5.5367444806        1.2664755614
 H       -13.4845634052        6.4644066518        0.0633070349
 H       -14.4514431815        2.9477267001       -1.1291590926
 H       -14.2585614535        4.5093844541       -1.8928956656
 H       -15.1066987708        4.3700836294       -0.2923312954
 H       -13.3354505681        8.9320534475       -2.3182004747
 H       -12.7089672903       10.4431256484       -2.1350550502
 H       -12.1551588621        8.9254791381       -1.0783715009
 H       -11.1348622233        9.0758091148       -5.1460045890
 H       -10.9727473931       10.6779176931       -4.4214063857
 H       -12.5581306177        9.8569343471       -4.4828544371
 H        -5.9293403629        9.7974714994       -2.3690390178
 H        -4.5321247072       10.6786374187       -2.6840651481
 H        -4.5844207202        8.9693323856       -3.1621044593
 H        -3.5526270245       10.5519410229       -5.3123793694
 H        -4.5049064838       12.0998373555       -4.8351482024
 H        -4.7066625884       11.2588079929       -6.3713036244
 Na      -10.7339640265        1.2002499243        0.7816113714
