117

 C        -6.5027670761        9.7957912013       -6.9646089860
 C        -6.0955705629        9.1737699633       -5.5748738434
 O        -6.1772927777        8.0249185900       -5.3549600493
 C        -5.5861985938       10.3681670381       -4.5581749455
 C        -6.7749389451       11.2621752883       -4.3879502748
 O        -6.7367421027       12.4284392243       -4.6415002023
 C        -8.1936346498       10.8734465093       -3.8377057103
 C        -8.4655944303        9.4734157229       -3.2300620534
 C        -9.7613561882        9.4907036608       -2.4172585066
 O        -9.5942566845        9.7072526669       -1.1980942642
 C       -11.1058042195        9.0973647042       -2.9162035649
 C       -10.8609154252        7.5117831169       -2.9236208220
 O       -10.5495586830        6.9435626247       -3.8443996624
 C       -11.2835412567        6.6785790270       -1.4881383941
 C       -11.6655543524        5.2541552833       -1.9246944794
 C       -11.7493529523        4.3710694460       -0.6708562597
 O       -10.7562324848        3.9806322218       -0.1020597489
 C       -13.2086588554        4.3260253512        0.0374139405
 C       -13.0529968763        3.1404606919        1.0463424783
 O       -12.9547927092        2.0187762642        0.5989939320
 C       -13.0350152985        3.3408462235        2.4759257236
 C       -11.6065208296        3.7888651507        2.9171761332
 C       -10.6227406549        2.6812710006        3.4829516303
 O       -10.1335151303        1.8552761335        2.7420865036
 C       -10.5107872336        2.2958842639        5.0637269081
 C       -10.6709362635        0.6816637962        5.3426464465
 O       -11.5915240518        0.3061908293        6.0582048667
 C        -9.7354614358       -0.2832602595        4.6841505285
 C       -10.3521212225       -1.6531692883        4.2490164742
 C       -11.4367650662       -1.2817974177        3.1346028715
 O       -11.7090509526       -0.1053745667        2.8719864380
 C       -11.9951895172       -2.5689904268        2.3959898994
 C       -10.7909111287       -3.0387589865        1.5345233811
 O        -9.7478281075       -3.2817457802        2.1161897390
 C       -10.6132144041       -3.3725271494       -0.0416690645
 C        -9.2165901407       -2.6357890065       -0.3520458366
 C        -8.9689144837       -1.2821923144        0.2594627510
 O        -9.9597420286       -0.6894473400        0.6076321458
 C        -7.6034741617       -0.5119693153        0.1668893621
 C        -7.8527769769        0.8270667070       -0.6010121666
 O        -8.8440681471        1.5599068440       -0.5255036726
 C        -6.7239683161        1.3988313871       -1.4528220004
 C        -6.9852415892       -0.2594284519        1.4790723666
 C        -6.5802681612       -1.4948689262       -0.6215785489
 C       -12.3823206130       -3.7230257931        3.4307184660
 C       -13.2578949953       -2.2782302330        1.6204782408
 C        -9.1242791903        2.8687515593        5.6451335331
 C       -11.5533766407        3.0860462899        5.8508215027
 C       -13.2136305287        5.6753457602        0.8617609168
 C       -14.3624003188        4.1780073606       -0.9237778232
 C       -12.3869686119        9.5460402604       -2.0825615511
 C       -11.3555126395        9.6101583920       -4.3384122428
 C        -5.0202697381        9.9418708559       -3.2262578547
 C        -4.4883994827       11.0560443137       -5.3927993937
 H        -7.3522845401        9.2155704429       -7.2968600605
 H        -5.6014160194        9.5116800800       -7.5731770831
 H        -6.8371878307       10.8804909582       -6.8312531569
 H        -8.8352921346       10.9320105527       -4.7035169158
 H        -8.5474922763       11.6182131106       -3.2252416995
 H        -7.6082669759        8.9951024952       -2.7930669657
 H        -8.4229017361        8.8419861137       -4.0980302397
 H       -12.0322951106        7.2559691420       -1.0373235652
 H       -10.5749738166        6.7099970704       -0.6442727804
 H       -10.8263612767        4.9351916681       -2.6241640049
 H       -12.5372252688        5.2517076297       -2.6008242870
 H       -13.4890813193        2.4338430787        2.9445041488
 H       -13.7233828679        4.1313275360        2.7637935148
 H       -11.6896386762        4.5386013694        3.7760409996
 H       -11.0478174853        4.2942456150        2.1268433010
 H        -9.0418543053       -0.4953472208        5.4955529345
 H        -9.0434599558        0.1274096685        3.9320873446
 H       -10.9119343364       -2.0576740870        5.1194451673
 H        -9.5151586708       -2.3993913585        4.1634258646
 H       -11.2561523773       -2.9543923268       -0.8638388790
 H       -10.7234240730       -4.4941335321       -0.0983487406
 H        -9.0330105660       -2.5730756070       -1.4931812619
 H        -8.4625974735       -3.3496569397       -0.1308686574
 H        -6.3785717205        0.5742762711       -2.0017953903
 H        -5.9875746941        1.9246131172       -0.8453461951
 H        -7.0807431101        2.1234616206       -2.1114156142
 H        -7.5164643386        0.4732000505        1.9683936016
 H        -6.0106097620        0.1277971064        1.3288883539
 H        -6.8868340267       -1.1184908240        2.1670411636
 H        -5.7548975009       -0.8799141233       -0.5626700912
 H        -7.0594842379       -1.8006550103       -1.5297546279
 H        -6.3493345759       -2.4959233652       -0.0937640390
 H       -12.8337096976       -4.5425727196        2.9550329595
 H       -13.0800921063       -3.4625987643        4.2435256280
 H       -11.4621153060       -4.0791076073        3.8399130315
 H       -13.2892202494       -1.7268959543        0.6707711797
 H       -13.9782732803       -1.6751815296        2.1918297841
 H       -13.6732487914       -3.2212642537        1.2018692122
 H        -8.3696980023        2.5023447918        5.0056031515
 H        -9.0431146928        2.2219351015        6.5638529740
 H        -9.1559150340        3.9539261910        5.9567241760
 H       -11.6403372225        2.7588667296        6.8603030066
 H       -12.6251641321        2.7356652456        5.6441017911
 H       -11.4575198777        4.1276507347        5.7865978835
 H       -12.3718068206        5.8596820800        1.5008782907
 H       -14.1393086519        5.6541534280        1.4276140220
 H       -13.2773014838        6.6130588090        0.2510022248
 H       -14.7688271674        3.1491838127       -1.2011280435
 H       -13.9570228425        4.6853235932       -1.8197268490
 H       -15.0737806714        4.8150034268       -0.4478993722
 H       -13.1479284185        8.8685464613       -2.2646519981
 H       -12.7485002639       10.4334614304       -2.4849217999
 H       -12.1310032987        9.3996315198       -0.9817417919
 H       -10.9228226038        9.1138116923       -5.1732058483
 H       -11.1093893960       10.5727618693       -4.2984371719
 H       -12.4630965702        9.6806796745       -4.5677530470
 H        -5.8790963705        9.5335009069       -2.5400847354
 H        -4.6030094909       10.7157826211       -2.6363772012
 H        -4.3722887475        9.1008328884       -3.5010643198
 H        -3.6035970482       10.5301773405       -5.6429032098
 H        -4.3542824973       12.0409129443       -4.7923812144
 H        -4.8561923786       11.3081423411       -6.3527692291
 Na      -10.6524643865        1.2360073627        0.8543505877
