117

 C        -6.5786664039        9.3773721307       -7.0675709199
 C        -6.0335720271        9.1940801413       -5.6531107940
 O        -6.2910389350        8.0899288567       -5.1088845613
 C        -5.4282979319       10.3251247864       -4.7445578350
 C        -6.7524321241       11.2085594756       -4.5833350945
 O        -6.7044400109       12.4214276909       -4.8708792688
 C        -8.0184548666       10.6895347802       -3.9386610845
 C        -8.3237506013        9.2665932017       -3.4234078565
 C        -9.5572319906        9.4802244034       -2.5471616163
 O        -9.5074346062        9.9894185371       -1.4699398464
 C       -11.0185312868        8.9706001118       -3.0363794229
 C       -11.0039084918        7.3881419169       -2.9831637908
 O       -10.8408374933        6.7253299859       -4.0969582636
 C       -11.2809926973        6.7039244193       -1.6645400038
 C       -11.4200502305        5.1760802762       -1.7719623657
 C       -11.7812563618        4.4098948511       -0.4757770753
 O       -10.8549741535        3.7804894375        0.0328677255
 C       -13.1087446190        4.5418686707        0.3211569630
 C       -13.0304608179        3.1930682921        1.1672992183
 O       -13.1346180016        2.1259630866        0.6045848964
 C       -12.7995722596        3.2440699261        2.6090545528
 C       -11.5055625969        3.8381732782        2.9801937071
 C       -10.5747708083        2.7503680260        3.5943064167
 O        -9.7917832380        2.0812469501        2.9092585768
 C       -10.6593198066        2.4995885756        5.2043013214
 C       -10.9506188792        0.9450990040        5.3334958199
 O       -11.9485690388        0.4902495416        5.8661083591
 C        -9.7877025141       -0.0937749212        4.8323720815
 C       -10.4602213863       -1.4088859820        4.4145858306
 C       -11.4016655331       -1.2804749960        3.1835125047
 O       -11.7012530505       -0.2429149759        2.6308982434
 C       -11.9601727080       -2.5730619244        2.4598463176
 C       -10.6299641754       -3.1235087695        1.7230032762
 O        -9.6471625690       -3.3603563278        2.3784872580
 C       -10.6395853007       -3.1378504276        0.2018462071
 C        -9.2441504869       -2.7868014182       -0.2685545529
 C        -9.0722028578       -1.4206408808        0.1847494865
 O       -10.0098769293       -0.7976842040        0.7152615380
 C        -7.6638701182       -0.7413266331        0.1413178790
 C        -7.8083166987        0.6824824037       -0.5617297065
 O        -8.7361106800        1.4146277943       -0.3574866775
 C        -6.7228527607        1.0856331222       -1.6485657241
 C        -7.4070518978       -0.2791257459        1.5635185882
 C        -6.5865482674       -1.5749434328       -0.5037270000
 C       -12.5073219929       -3.7040421179        3.3433984093
 C       -13.0257201111       -2.0569644609        1.3925112298
 C        -9.1789906992        2.8353749314        5.5351215699
 C       -11.7763014880        3.2517032961        5.8734046118
 C       -13.4262499007        5.7874027331        1.1216163438
 C       -14.3556717239        4.3020038238       -0.6772669012
 C       -12.0210748961        9.7650567230       -2.0828182362
 C       -11.1785267074        9.3211146373       -4.5311995848
 C        -4.8604082051        9.5287702258       -3.5385058748
 C        -4.2985058679       11.2342238484       -5.3845230033
 H        -7.4060348106        8.6635891872       -7.2230752835
 H        -5.7654522946        9.1573128082       -7.6685220536
 H        -6.9990161363       10.2980622665       -7.1073034496
 H        -8.8429506259       10.9926747543       -4.6596631899
 H        -8.2955499941       11.3743365686       -3.0169099864
 H        -7.4548968245        8.8344348173       -2.8984355532
 H        -8.4548847487        8.5663497842       -4.2674333859
 H       -12.1471646612        7.2687523575       -1.1044092086
 H       -10.4794288418        7.0564791887       -0.9626458632
 H       -10.4071179792        4.8466685883       -2.0218757084
 H       -12.1144892003        4.9173274910       -2.5764291036
 H       -12.9501706068        2.2542716675        3.0393925914
 H       -13.6991070567        3.7471830927        3.1021734358
 H       -11.6292892702        4.5757815355        3.7306949272
 H       -10.9315572793        4.3029056859        2.1836684563
 H        -8.9412914456       -0.3321450028        5.5305892714
 H        -9.2562617874        0.3730149462        3.9798352398
 H       -10.9247810798       -1.8535009312        5.3123129208
 H        -9.7666459006       -2.2021125823        4.1495698049
 H       -11.4355513585       -2.4682886077       -0.1446889927
 H       -10.8908114198       -4.1087070502       -0.1959949961
 H        -9.0504331438       -2.9053566759       -1.2716440403
 H        -8.7286585972       -3.6972937980        0.1158135662
 H        -6.9756643810        0.4940812720       -2.5486439419
 H        -5.7419513831        0.9136079520       -1.2448748278
 H        -6.7656984970        2.2074472740       -1.7360534873
 H        -8.3024881720        0.1952813902        2.0506772793
 H        -6.4304696710        0.3520223764        1.6350546477
 H        -7.1979701520       -1.1613940267        2.1787001499
 H        -5.6093273667       -1.1243026545       -0.2474906457
 H        -6.8472376305       -1.8112570289       -1.5762310083
 H        -6.7503652084       -2.4361857973        0.0686458231
 H       -12.5648105202       -4.7684193817        2.8681772302
 H       -13.6010481020       -3.5291038928        3.4681261210
 H       -12.0429869034       -3.7652534206        4.3694842845
 H       -12.6275166744       -1.1791942653        0.8211726302
 H       -13.8490886847       -1.5281932929        1.8257693915
 H       -13.2985401700       -2.6255263005        0.5380494644
 H        -8.5375380114        2.0930698200        5.0144732547
 H        -8.9758575643        2.7013775280        6.5992601132
 H        -9.1040240077        3.8388983988        5.1458160847
 H       -12.1231437752        2.7222805800        6.7645900307
 H       -12.6438538273        3.1320953493        5.3166716176
 H       -11.6157522499        4.3295393201        6.1768210784
 H       -12.5585972962        6.3669019027        1.4876996142
 H       -14.2218162922        5.7527933023        1.8775279599
 H       -13.7524081442        6.4283186411        0.3387471433
 H       -14.2882604838        3.2851829658       -1.0422961178
 H       -14.1919571385        4.9979867712       -1.4493837547
 H       -15.2863634974        4.5264453731       -0.0906557749
 H       -12.9674905837        9.1710658847       -1.8772289875
 H       -12.2726748515       10.7259167248       -2.6937572586
 H       -11.4236499830       10.0401274963       -1.1913205916
 H       -10.2013541942        9.0517761277       -4.9790507747
 H       -11.5592325341       10.3403521558       -4.8217281717
 H       -11.8719432495        8.7080070252       -5.1298423686
 H        -5.5764750594        8.8080262448       -3.2176050764
 H        -4.9533943849       10.2248942305       -2.7062399392
 H        -3.8289489443        9.1465075680       -3.6931591315
 H        -3.6577806583       10.5659277736       -5.9908863877
 H        -3.7848615852       11.6386274080       -4.5786576112
 H        -4.5571432666       11.8950407062       -6.1935506108
 Na      -10.9028840274        1.6364685718        0.7620013405
