117

 C       -14.0803142782        4.2254742859       -8.5476416551
 C       -12.5504968107        4.0312413072       -8.7059464135
 O       -11.7238475507        4.9218128572       -8.6021021200
 C       -11.9977798408        2.5482100188       -8.6394309122
 C       -11.0743943677        2.2588991461       -7.4635297602
 O       -11.3801334998        1.3398398993       -6.7199301500
 C        -9.7322201874        3.1409511850       -7.2301352992
 C        -8.8166592813        2.3737314525       -6.3062438629
 C        -9.1237983888        2.6669842589       -4.7531474164
 O       -10.1689526405        3.1909202551       -4.4259431928
 C        -8.1996723081        2.2566198336       -3.5083799589
 C        -7.9103827770        3.6320849690       -2.6143948473
 O        -6.7720895963        3.9005772043       -2.3776144677
 C        -9.0787069914        4.5668917164       -2.2026607483
 C        -8.6547568755        5.9769627065       -1.5629995625
 C        -8.0083496164        5.8556399353       -0.2036230690
 O        -7.9803715917        4.7424481541        0.2953049490
 C        -7.3850528381        7.0555334506        0.5849313259
 C        -8.3658447695        7.5926559627        1.7069017815
 O        -9.5680561003        7.4615500937        1.5397901208
 C        -7.6861062047        8.3494962392        2.8337442838
 C        -8.6444754438        8.4948858054        3.9347357945
 C        -9.1225589367        6.9962466504        4.2712476668
 O        -8.3451250155        6.0969096509        4.2921892548
 C       -10.6491247416        6.6402753965        4.7407062946
 C       -11.0578325749        5.1388025793        4.7359273189
 O       -10.4950071477        4.3103368524        4.0114777404
 C       -12.3692524718        4.7376303484        5.3789968920
 C       -12.6037776891        3.1782832125        5.3173780705
 C       -13.0507111946        2.9739421312        3.8560763234
 O       -13.2418397418        3.8578093137        3.0817979382
 C       -13.2195953272        1.4416052772        3.4310380167
 C       -11.8245708642        0.8487402714        3.2767380372
 O       -11.0631928073        0.8588398545        4.2813859490
 C       -11.3230550276        0.4206421788        1.9089876526
 C        -9.8594457953       -0.0698603318        1.8959618919
 C        -8.8660443054        1.1960243190        1.8046661668
 O        -9.1968116018        2.3624356669        1.7002282793
 C        -7.2706874711        0.8504457046        2.0131285910
 C        -6.9288881481        1.1986044223        3.5534940378
 O        -7.0948567024        2.2805778574        4.0292510864
 C        -6.2529624217        0.1823344676        4.4299262856
 C        -7.0096949129       -0.6511896426        1.6651309176
 C        -6.2561034462        1.8178297340        1.2322220036
 C       -13.8901279113        0.6700483199        4.6632484971
 C       -14.1991839498        1.3635040467        2.2824120815
 C       -10.6654171773        7.1850772903        6.3172612527
 C       -11.6430694762        7.4312015349        3.8666150223
 C        -6.1236458648        6.4601457348        1.2699100492
 C        -7.0949182130        8.2077149954       -0.4470793310
 C        -8.9984028794        1.1961468240       -2.7570358571
 C        -6.8677239118        1.5898999190       -4.0206143134
 C       -13.0124252811        1.3968758859       -8.7338273528
 C       -11.0376193545        2.4760525730      -10.0146991572
 H       -14.3899183692        5.2230209672       -8.9655456859
 H       -14.5533352244        3.8856343326       -7.6509591647
 H       -14.5056375495        3.4611145856       -9.2692119659
 H       -10.0323653099        4.0699886307       -6.7278340007
 H        -9.2589605741        3.3852397715       -8.2444973782
 H        -7.8171883261        2.7958426915       -6.4067745267
 H        -8.9260552801        1.2722771732       -6.3646234611
 H        -9.7420326144        4.1054200620       -1.5782032971
 H        -9.7117999121        4.8397216313       -3.0646462847
 H        -9.5446208254        6.6443927774       -1.4468127259
 H        -7.9301526852        6.3422237029       -2.2548187987
 H        -7.4239653588        9.3542862230        2.5740767589
 H        -6.8746020950        7.7453294540        3.2004090563
 H        -9.5333648159        9.0704754091        3.5958934142
 H        -8.1847848395        8.9527502741        4.7719264854
 H       -13.1929006004        5.1718468358        4.7462413976
 H       -12.5263282477        5.2079136166        6.3781071883
 H       -13.4417891593        2.9645632420        5.9296075917
 H       -11.6996225185        2.6127018997        5.5556804048
 H       -11.5068281658        1.3655456546        1.3279787777
 H       -11.9339396714       -0.3579009638        1.4000668358
 H        -9.7121957825       -0.7432177826        1.0794934947
 H        -9.6924242280       -0.6587566110        2.8158642763
 H        -6.2968363983        0.4590606398        5.5382809724
 H        -5.2293465414       -0.0089716911        4.0754385641
 H        -6.8362903009       -0.7644315727        4.3113548639
 H        -7.2354939015       -0.9136659476        0.6778968042
 H        -7.4948826835       -1.2566240947        2.4286595685
 H        -5.8728381458       -0.7777562990        1.5897300490
 H        -6.4911405605        2.8347311740        1.4237595969
 H        -6.4803237524        1.7061705336        0.1045834259
 H        -5.2354684559        1.4361872352        1.3622821260
 H       -13.1120262322        0.3008505172        5.4134575279
 H       -14.4616530913       -0.1949323761        4.3567766215
 H       -14.7340994604        1.2764724560        5.0016582049
 H       -15.1304866426        0.9815144419        2.6863978886
 H       -13.9462700552        0.5562443369        1.5430562482
 H       -14.2245665928        2.1773771228        1.6121327588
 H       -10.0686730211        8.1058938456        6.4897983247
 H       -10.3489058149        6.3955833995        6.9557351544
 H       -11.7169321703        7.2514224072        6.6040539633
 H       -11.7887754652        6.9857225753        2.9249530238
 H       -11.4740795274        8.5064716878        3.8280339676
 H       -12.6308961839        7.4831226635        4.3414529772
 H        -5.2981639960        7.1206493594        1.4187952855
 H        -5.5612979068        5.7103353071        0.6968252983
 H        -6.4797737474        6.0523277590        2.1582157381
 H        -6.2935997151        8.1517165721       -1.1557796315
 H        -6.9735075369        9.1409615233        0.0631434156
 H        -7.9523367378        8.2822354084       -1.0822746123
 H        -9.1518554866        0.2754335502       -3.4135676370
 H        -9.9602049702        1.5776465489       -2.3698261605
 H        -8.4663243240        0.9770130364       -1.8638684147
 H        -7.0902547865        0.6604610339       -4.5727054095
 H        -6.1716408123        1.2654743791       -3.2794288633
 H        -6.4408611944        2.2283241675       -4.7493675595
 H       -13.6833093754        1.4440646283       -7.9122814367
 H       -12.5583801200        0.4420857408       -8.6209134767
 H       -13.6047071867        1.4148284066       -9.7035823374
 H       -10.3073169090        3.2312206343      -10.0359214726
 H       -11.8028448748        2.5540207219      -10.7262466124
 H       -10.6355158535        1.4741329778      -10.0489180371
 Na       -8.2679876560        4.1162588362        2.8470536680
