117

 C        -6.1740306979        8.6833047441       -7.4932501670
 C        -5.8481918466        8.7527938077       -5.9983146894
 O        -6.0493911878        7.7833963902       -5.3646272373
 C        -5.3735700966       10.0593456713       -5.1980098178
 C        -6.3602744703       11.1475173691       -5.0081358599
 O        -6.3599673459       12.2123611079       -5.5670898118
 C        -7.4419703093       10.8578097739       -3.8351005563
 C        -8.2202217113        9.5594659506       -3.6717188061
 C        -9.4282726752        9.3398567795       -2.8460077091
 O        -9.3862637370        9.2925861679       -1.5671607200
 C       -10.9027455516        9.0242640347       -3.4526547412
 C       -11.1994373646        7.4814691719       -3.0718520940
 O       -11.3794540094        6.7298112544       -3.9192322107
 C       -11.3559369363        6.7632689762       -1.6003455605
 C       -11.3227437303        5.2312796891       -1.6304419792
 C       -11.6506145142        4.4679999082       -0.3080117141
 O       -10.8940727185        3.6220146723        0.0993942374
 C       -13.0989970247        4.5681657531        0.4268127504
 C       -13.0596565754        3.3631039566        1.3905920971
 O       -13.3498325301        2.2678173192        0.9382539509
 C       -12.8556499054        3.4626208050        2.8662177684
 C       -11.4688718990        4.0493092839        3.2982587410
 C       -10.6321444422        3.0142200937        3.9715608199
 O        -9.7173699880        2.3941462270        3.3793733160
 C       -10.7990231234        2.6558439221        5.4929904615
 C       -11.4614535547        1.2641978006        5.4857108832
 O       -12.6617375145        1.1661425730        5.2850330382
 C       -10.5808831296        0.1298107190        5.1588941565
 C       -11.1024608742       -1.1199383606        4.5639184267
 C       -11.5231281930       -1.0874534292        3.1166357673
 O       -11.4050465853       -0.0126109473        2.5885078600
 C       -11.9079049303       -2.3501831232        2.3750119651
 C       -10.5963670169       -3.2304420811        2.1986052544
 O        -9.8417938077       -3.6240329269        3.0904874073
 C       -10.5727288452       -3.7607265223        0.7296626471
 C        -9.4392496945       -2.9908525020       -0.1359308795
 C        -9.2890247383       -1.4474483368        0.0928457056
 O       -10.1880788259       -0.6351016675        0.0434332332
 C        -7.8564699301       -0.7053211374        0.1924128066
 C        -7.8424894518        0.5213111366       -0.7052499978
 O        -8.5474835027        1.4834227729       -0.4504472639
 C        -6.9006000093        0.6581819555       -1.9304030933
 C        -7.7539399747       -0.3953360840        1.7143887749
 C        -6.6225342060       -1.8335642130       -0.0297186093
 C       -12.9296712802       -3.1913153077        3.2847530954
 C       -12.6788997085       -1.8997160892        1.1108634817
 C        -9.2968633464        2.7282639107        6.0643387018
 C       -11.5013380687        3.7988688603        6.4009696039
 C       -13.2192054383        5.8642121275        1.2302984554
 C       -14.2430546214        4.3627933470       -0.5606958802
 C       -11.9751466355       10.0586605441       -2.9481326580
 C       -11.0423835753        9.0155286205       -5.0241688669
 C        -4.7623007643        9.4259604271       -3.8458618239
 C        -4.0817072205       10.6718829699       -5.9130620667
 H        -7.0055334364        8.1245852759       -7.4860854063
 H        -5.3644847099        8.1612096242       -7.9155524557
 H        -6.3431586752        9.6674556764       -7.9176933412
 H        -8.2101967725       11.6708640245       -4.1880195527
 H        -7.1384936909       11.2861877241       -2.8648519163
 H        -7.6102748768        8.9234138590       -2.9077152449
 H        -8.4349069478        9.1968957547       -4.7522315655
 H       -12.3693363957        7.0160823242       -1.2464484390
 H       -10.6117093642        7.0497686369       -0.8050364976
 H       -10.2448089108        4.9947368041       -1.7773653926
 H       -11.9925651892        4.8167008353       -2.3644044111
 H       -12.9839752764        2.4357725195        3.2388338032
 H       -13.8044781981        3.9046735136        3.2941774496
 H       -11.6085574540        4.8993082517        3.9767037839
 H       -10.9089574765        4.3578938706        2.4683526760
 H        -9.9889298483       -0.1707949719        6.0480833491
 H        -9.7891779657        0.5832071485        4.4705900179
 H       -11.9516926658       -1.5473969902        5.0663639501
 H       -10.3697117444       -1.8988730151        4.7304275845
 H       -11.5569754496       -3.6808927817        0.3189850489
 H       -10.2823731396       -4.7423340778        0.9167927314
 H        -9.7176610705       -3.2067369521       -1.2134377910
 H        -8.4198671547       -3.3058587125       -0.0288723595
 H        -6.5773417838        1.6632540705       -2.2182266487
 H        -7.4760831781        0.0868997150       -2.7416035411
 H        -6.0743903871        0.0481040501       -1.6224504358
 H        -8.5263195358        0.3416300938        2.0341470122
 H        -6.7580183067       -0.0186970516        1.8494712547
 H        -7.9448051098       -1.2387451163        2.5130930492
 H        -5.7015775900       -1.2301068024        0.1260370317
 H        -6.4803027576       -2.1172530263       -1.0346819538
 H        -6.8332171462       -2.5680217682        0.7838965789
 H       -13.5225673249       -3.8232649698        2.6009188334
 H       -13.5845874978       -2.5636917264        4.0289653708
 H       -12.2664234745       -3.8781773581        3.9351268355
 H       -12.1652355814       -1.4677631540        0.3108959068
 H       -13.4893123931       -1.2630378056        1.4360119909
 H       -13.2188879636       -2.7201781532        0.5882287819
 H        -8.6529687753        2.7391785498        5.2457153960
 H        -9.1999320557        1.7413941006        6.5573631348
 H        -9.0456294921        3.6962200981        6.5056644941
 H       -11.4143172072        3.3081354379        7.3303950306
 H       -12.5042192074        4.1543094207        6.0422519078
 H       -11.0622680993        4.7284127635        6.5679615752
 H       -12.3814228486        5.8817245388        1.9278809091
 H       -14.1107932244        5.8936648910        1.8395313418
 H       -13.1055338912        6.7789452592        0.6003280784
 H       -14.4624816641        3.3069678891       -0.6677349874
 H       -14.2114337271        5.0456227669       -1.4341210704
 H       -15.0213083145        4.8179554965       -0.0544510166
 H       -12.9742688280        9.6447123786       -3.2033083285
 H       -11.7880278871       11.0600463565       -3.3421716655
 H       -11.6030863936       10.3652949875       -1.9592581795
 H       -10.3172919751        8.3966432477       -5.6349151275
 H       -11.0109210077       10.1113874253       -5.3784896011
 H       -12.0524301145        8.6228038187       -5.1677793125
 H        -5.5509271511        9.0341179401       -3.1934724224
 H        -4.2365319185       10.2755105369       -3.3905016805
 H        -4.0099384592        8.7194140333       -4.0651520368
 H        -3.3140102703        9.9441761025       -6.0649589089
 H        -3.5405369778       11.4290957255       -5.2200781858
 H        -4.2966191457       11.2425958996       -6.8072291813
 Na      -10.2829862115        1.6550177580        1.2552322332
