117

 C       -14.0232925812        4.1511248780       -8.8114757553
 C       -12.5261813202        3.8977419893       -8.7127138346
 O       -11.8995025736        4.9342590789       -8.6709210639
 C       -11.9410007717        2.4296463237       -8.7512572030
 C       -11.1188616468        2.1450847361       -7.4205559733
 O       -11.4244262285        1.2936331376       -6.6238668042
 C        -9.8782874785        2.9763361155       -7.1222184612
 C        -8.8845854025        2.3151144357       -6.2450658942
 C        -9.1999803653        2.5476172053       -4.7545717356
 O       -10.2320783980        3.0723681169       -4.4201113524
 C        -8.2390757583        2.2707273680       -3.6069945988
 C        -7.9172028107        3.6562593200       -2.7150954583
 O        -6.7154751416        3.8394453522       -2.4353015076
 C        -9.0578037640        4.5200875833       -2.2149794418
 C        -8.6785587228        5.9029751444       -1.6034847185
 C        -8.1565020155        5.7839690506       -0.2084940728
 O        -8.0983112389        4.7391135484        0.4578811440
 C        -7.4743222705        7.0394173500        0.4618852304
 C        -8.3915889936        7.6358494819        1.5077026093
 O        -9.5771039389        7.4457070618        1.4793279695
 C        -7.8711976967        8.5553559506        2.6562075415
 C        -8.8563330769        8.4687399888        3.9265955534
 C        -9.0945979737        7.0593633443        4.4211853127
 O        -8.2112241156        6.2426284970        4.2190907287
 C       -10.5639747981        6.7294095039        4.9487491798
 C       -10.9792311317        5.2484703786        4.7844706954
 O       -10.4242821568        4.5639984699        3.9429004079
 C       -12.2563995728        4.7845310213        5.4781344744
 C       -12.4629903427        3.2768644753        5.2820047146
 C       -12.9917296757        2.8990554644        3.8992059610
 O       -13.2956792240        3.7408960895        3.0413174343
 C       -13.2547414661        1.3274331775        3.5358549004
 C       -11.6908097700        0.8595242878        3.4214062099
 O       -10.9508405812        0.9440234260        4.3072327582
 C       -11.2281156123        0.5845181833        1.9730268893
 C        -9.7353376573        0.0482045194        1.8866491853
 C        -8.8358147072        1.2122505489        1.9183192911
 O        -9.2865324554        2.2929791571        1.6771964970
 C        -7.3074981165        0.9003850167        2.1059272629
 C        -6.8705934080        1.2668292875        3.5902095495
 O        -6.9557080725        2.3833078236        4.0356442369
 C        -6.1690919388        0.1311104740        4.4286505378
 C        -6.9805095906       -0.6434025600        1.7658030361
 C        -6.4730962933        1.7414553787        1.1385548780
 C       -13.8178041837        0.5966287823        4.8396979986
 C       -14.1586812387        1.2159017863        2.3468920798
 C       -10.7356088997        7.3792382943        6.3489405261
 C       -11.6153663050        7.3358677625        3.9893558961
 C        -6.1017576958        6.5412316366        1.0147575777
 C        -7.0665537781        8.2220964966       -0.4739449133
 C        -9.0071132351        1.2104312253       -2.6700691609
 C        -6.8488131737        1.7083072926       -4.0581212877
 C       -13.0263530870        1.4555493161       -8.9725080786
 C       -11.0008008479        2.2769163442      -10.0284701436
 H       -14.2313677961        5.1811437013       -9.2273844746
 H       -14.6644769064        3.8695733674       -7.9604843242
 H       -14.4426875550        3.4376698917       -9.5899245002
 H       -10.2527905087        3.9303301989       -6.6403275230
 H        -9.3996636918        3.2279985507       -8.1255832822
 H        -7.9345654288        2.8298673169       -6.4369167493
 H        -8.9057958625        1.2541405042       -6.2935283465
 H        -9.4580128898        4.0009056535       -1.2917909262
 H        -9.9466943242        4.6112792761       -2.8410272861
 H        -9.6179100321        6.4873234441       -1.5337850257
 H        -7.8848102685        6.3837378594       -2.1914463321
 H        -7.9119715578        9.6090793750        2.4551749763
 H        -6.8530472955        8.1469177196        2.9955499135
 H        -9.7869284060        8.9771295732        3.7018915519
 H        -8.4026672917        8.9135734759        4.7922024652
 H       -13.1860131627        5.3611763260        5.2881941436
 H       -12.0611742071        4.9377934343        6.5996744827
 H       -13.2287480756        3.0076617201        6.0607648080
 H       -11.4398355724        2.8246261763        5.4297283840
 H       -11.5040382175        1.4720582652        1.3640112947
 H       -11.8556691383       -0.2750890482        1.5560643765
 H        -9.5914947651       -0.4853391512        1.0345043184
 H        -9.5385902149       -0.6178351191        2.6579261393
 H        -6.2548194812        0.2106186983        5.4913684125
 H        -5.0796183665        0.0910934661        4.0762903688
 H        -6.6488086085       -0.8228080588        4.1722959999
 H        -6.9297812738       -0.7208105651        0.6781663781
 H        -7.6873556234       -1.3063253283        2.2120851502
 H        -5.8921609799       -0.8907489041        1.9189565677
 H        -6.8454675569        2.8732762730        1.0399696326
 H        -6.6882812401        1.3482447568        0.1750452800
 H        -5.4323951126        1.5605166508        1.3290451952
 H       -13.1462181453        0.7890614908        5.6329036969
 H       -13.8169441269       -0.5035102284        4.7094463260
 H       -14.9094461152        0.7786977567        4.9767829142
 H       -15.0332821480        0.6998885699        2.5656696435
 H       -13.7615989010        0.5855782547        1.5158328433
 H       -14.3422169233        2.1077792157        1.7901205464
 H       -10.3058933191        8.3780645299        6.3767920273
 H       -10.3212027192        6.7432087255        7.0601144510
 H       -11.8022942701        7.3626094695        6.6578305435
 H       -11.5095124707        6.7781660895        3.1096072629
 H       -11.6631754742        8.3862507714        3.8340334289
 H       -12.5781217500        7.1730664057        4.2804461827
 H        -5.3819285778        7.3592943587        1.2018985833
 H        -5.4832327725        6.0542863911        0.2943151619
 H        -6.2487186850        6.0595041362        1.9273647877
 H        -6.2725529763        8.1010808584       -1.1963367367
 H        -6.9322322080        9.1273495737        0.0587730236
 H        -7.8931217039        8.4685532239       -1.0482230199
 H        -8.9172802952        0.1992453562       -3.0737074534
 H       -10.0517098656        1.4653957397       -2.7084779285
 H        -8.7477959531        1.3282337522       -1.5913261170
 H        -6.8940030513        0.6561274359       -4.3765350738
 H        -6.1777334875        1.5827613451       -3.2150668869
 H        -6.4620244771        2.2551926231       -4.9298155620
 H       -13.9303115474        1.8609105910       -8.3806439669
 H       -12.8244020408        0.4727327304       -8.4930321965
 H       -13.3677441603        1.3527889332       -9.9940367343
 H       -10.2798904710        3.0279629037       -9.9099404197
 H       -11.5803294322        2.2871546151      -10.9373601110
 H       -10.5412394770        1.3241605594       -9.8710333555
 Na       -8.2769488022        4.1048019923        2.9061323677
