117

 C        -5.4298283284        7.9752997501       -7.9016286056
 C        -5.1190468169        8.0120965057       -6.4553628515
 O        -4.9241115369        6.9451758178       -5.8646760934
 C        -4.9057503687        9.3171930007       -5.5909358278
 C        -6.2904296641        9.9439929703       -5.3261293093
 O        -6.8055944064       10.8470496581       -5.9658829588
 C        -7.0385629058        9.3378218092       -4.0845236152
 C        -8.4695358451        9.0315870794       -4.6172864548
 C        -9.4160153391        8.6371975745       -3.5175356064
 O        -9.1414753798        8.4950103270       -2.3621180513
 C       -11.0049858036        8.5638623801       -3.8663707639
 C       -11.4625819857        7.1992879876       -3.5353261526
 O       -11.9172998613        6.5519810324       -4.5471586371
 C       -11.6540616735        6.6150366562       -2.0499924935
 C       -10.9815394372        5.2816042734       -1.7452325108
 C       -11.1136866986        4.8094804386       -0.3418849112
 O       -10.0910464441        4.6379661685        0.3159895820
 C       -12.5005681903        4.9778245986        0.3436754234
 C       -12.5009093083        3.8928321475        1.5676910579
 O       -12.3995779593        2.7606063785        1.2759995209
 C       -12.5516428219        4.4123106416        3.0816126912
 C       -11.0717087971        4.5193083358        3.5471083539
 C       -10.4479718196        3.3116136346        4.2281888914
 O        -9.9709216566        2.4611183757        3.5474021831
 C       -10.7072682531        2.9647770489        5.6286901020
 C       -11.8904883365        1.7181521821        5.5907204753
 O       -13.0433459815        1.9644066293        5.4165878356
 C       -11.3649106659        0.2422552646        5.8009038589
 C       -12.1770585694       -0.9175413752        5.1692701417
 C       -12.1964136323       -0.7000418610        3.5462596670
 O       -11.9490777131        0.4076970566        3.0599888500
 C       -12.6183218517       -1.7658452639        2.5656716153
 C       -11.3619586655       -2.7121848209        2.2890490675
 O       -10.5767800447       -3.0940951564        3.1124132253
 C       -11.1105967037       -3.1503059221        0.7852703056
 C        -9.5964027715       -2.8744698249        0.4726279652
 C        -9.2426366841       -1.3505546281        0.3981576821
 O       -10.1908440274       -0.5812081889        0.5285043079
 C        -7.8147679696       -0.8396770751        0.4758499002
 C        -7.7359029206        0.5648481022       -0.3253854156
 O        -8.3876809891        1.5195783179        0.0848334654
 C        -6.9850900352        0.5801017331       -1.6632183594
 C        -7.4671957989       -0.4756637743        2.0123103647
 C        -6.6307900457       -1.9239290188        0.2484833713
 C       -13.5862752802       -2.8415405278        3.1821933943
 C       -13.1961826341       -1.1377470160        1.2053207655
 C        -9.4990799813        2.4766181923        6.3843107576
 C       -11.4428376016        4.1827642708        6.4353410237
 C       -12.7200982837        6.4140753273        0.7378536964
 C       -13.6644199860        4.4392668528       -0.5206777344
 C       -11.8483147004        9.5085769857       -2.7867483272
 C       -11.5276819078        9.1989701064       -5.1403528959
 C        -4.1985699593        9.0409322463       -4.2142743160
 C        -4.0017616190       10.2913033701       -6.6036219860
 H        -5.5035952106        6.8944942552       -8.1708316672
 H        -4.7594579964        8.5882243753       -8.4203225372
 H        -6.3918741675        8.4632698780       -7.9272501633
 H        -7.2086782417       10.1497848417       -3.3727258210
 H        -6.5340431807        8.3918763612       -3.7264895093
 H        -8.4586718684        7.9995954182       -5.2178142909
 H        -9.1450891222        9.7795771354       -5.0949440734
 H       -12.7426117350        6.3769793760       -1.9688435424
 H       -11.1746599127        7.2572784050       -1.2639261581
 H        -9.9412647616        5.4364043221       -1.8780370315
 H       -11.1937438817        4.4556440013       -2.4377108874
 H       -13.0315509839        3.7428380652        3.8813017649
 H       -13.0025750230        5.4105039684        2.9828958243
 H       -11.0182650122        5.3992455548        4.0969989064
 H       -10.4936414767        4.7717746649        2.6435499943
 H       -11.4125320155       -0.0024602923        6.9021138077
 H       -10.3198228705        0.2431068601        5.4239385694
 H       -13.1967102357       -0.7629382760        5.4933229651
 H       -11.7281204658       -1.8782981650        5.3751855614
 H       -11.8797016099       -2.8022418385        0.1301526263
 H       -11.1816434745       -4.1853629124        0.8039858008
 H        -9.1355145304       -3.1627132562       -0.5005787503
 H        -8.9072859369       -3.2163764367        1.2850447107
 H        -7.7581795937        0.7166461037       -2.3884231861
 H        -6.3575351237       -0.2740927245       -1.7408090700
 H        -6.4296675963        1.5048410142       -1.7468256447
 H        -8.0650730461        0.3068244852        2.4486764948
 H        -6.4572326048        0.1344663946        2.0887729764
 H        -7.4401729367       -1.3273315563        2.7026423700
 H        -5.7007392459       -1.4366689460        0.0667160291
 H        -6.9430477965       -2.6626225598       -0.5697520633
 H        -6.6012992479       -2.7332590081        1.0920710911
 H       -14.5003142725       -2.2005218683        3.3566630277
 H       -13.1762080004       -3.1028274145        4.2230091208
 H       -13.6692629991       -3.7193494583        2.5362238656
 H       -12.5177931654       -0.2420468018        0.8689297015
 H       -14.0302718070       -0.5035611062        1.3822317038
 H       -13.3613351531       -1.8595738516        0.4128651189
 H        -9.0187417110        1.7374207681        5.6668074419
 H        -9.6880489466        2.1212861905        7.3778903796
 H        -8.9047230768        3.3540612268        6.6505355307
 H       -11.9270142349        4.2114024675        7.4195119302
 H       -12.3071681502        4.3630857893        5.8862214577
 H       -10.6628643229        4.9758402347        6.3102412920
 H       -11.7826501947        6.8757288728        1.0475795219
 H       -13.5145042824        6.6102300275        1.4781931589
 H       -13.0834289448        6.8936809980       -0.1313721805
 H       -14.7389232319        4.7169443869       -0.2753901372
 H       -13.6286328148        3.4299310771       -0.4710865752
 H       -13.6094120203        4.8602608432       -1.5201645854
 H       -12.7964963008        9.0534905120       -2.6252782116
 H       -11.9532064797       10.4175975362       -3.3662598613
 H       -11.5225110783        9.3347669666       -1.6958363047
 H       -11.3857347985        8.7300825892       -6.1448788900
 H       -11.1834444573       10.1908765918       -5.2398726235
 H       -12.6844566249        9.3016144179       -4.9108538636
 H        -3.0257267852        9.1479573338       -4.1800882563
 H        -4.3554446634        8.0540436291       -3.9740721957
 H        -4.6164928392        9.6698514604       -3.4319484721
 H        -2.9125753204       10.0008734900       -6.5829023867
 H        -4.0102024675       11.3202536077       -6.3234257119
 H        -4.2402568990       10.2442188123       -7.6851554608
 Na      -10.3840603848        1.5574261720        1.5814830133
