117

 C        -5.3654575671        7.8311090340       -8.0096888976
 C        -4.9480387850        7.8652871419       -6.4461826954
 O        -4.7386461366        6.8583758145       -5.8655451072
 C        -4.8428875784        9.2470698721       -5.6866348500
 C        -6.2693279185        9.8956755420       -5.4604872416
 O        -6.7351851267       10.8254423722       -6.0529751917
 C        -7.0579295717        9.0147615932       -4.3443499718
 C        -8.6319753849        9.1330979418       -4.6181382535
 C        -9.5944220781        8.6601521618       -3.3756049483
 O        -9.1839046432        8.4486440374       -2.2934551573
 C       -11.1034583629        8.6806163241       -3.7924175977
 C       -11.5362328261        7.0947583148       -3.6328569781
 O       -11.8767003538        6.3823023606       -4.5980443422
 C       -11.5817919581        6.5311617589       -2.2708339385
 C       -10.9385010292        5.1660297380       -1.9396208373
 C       -11.0448843026        4.9430087359       -0.3624848455
 O       -10.0853277327        4.6603990857        0.3233685117
 C       -12.5509957412        5.0367012497        0.3338784954
 C       -12.4985971862        3.9956885559        1.5344667166
 O       -12.3814866754        2.8476047072        1.1845548031
 C       -12.4198076977        4.3906531776        3.0213194686
 C       -10.9735827734        4.4925252974        3.4821307846
 C       -10.5780433056        3.1693606931        4.2341861859
 O        -9.7388010241        2.4030198139        3.7308478919
 C       -10.8281467066        2.9199628261        5.7176654203
 C       -11.8554373968        1.7439130058        5.6617305958
 O       -13.0257171567        2.0089054721        5.3519717335
 C       -11.3605406096        0.3217442890        5.8353858667
 C       -12.3263313768       -0.7383480865        5.1116465992
 C       -12.2279859865       -0.5770433854        3.5683439016
 O       -11.8877149104        0.5330467854        3.1726306998
 C       -12.6458988393       -1.7780366050        2.5641205103
 C       -11.4109055105       -2.6965992162        2.2016360522
 O       -10.7569285642       -2.8906469011        3.1806449333
 C       -10.9867523414       -3.1914346936        0.7913339351
 C        -9.5843103757       -2.8602713565        0.5042800544
 C        -9.3576881858       -1.2993913968        0.5748091215
 O       -10.3248460683       -0.5326109331        0.7160198946
 C        -7.7974751221       -0.8461606578        0.5256387580
 C        -7.6874806287        0.4753515011       -0.2380145093
 O        -8.2988959217        1.4124902891        0.2246488799
 C        -6.9037047297        0.7246193774       -1.5673397690
 C        -7.4885546818       -0.3702554091        1.9491681853
 C        -6.8011330285       -1.9325148165        0.0953977467
 C       -13.7714168317       -2.7299300692        3.3345013448
 C       -13.2273107702       -1.2141152958        1.2608000367
 C        -9.4568124329        2.4443138271        6.3247640711
 C       -11.5003477215        4.0340920102        6.6165869556
 C       -12.8308925022        6.5363919618        0.8007070726
 C       -13.6145406535        4.4899919193       -0.5552113501
 C       -11.7012457535        9.5709456469       -2.6164465675
 C       -11.4805147594        9.0079877600       -5.2439114698
 C        -4.1629002088        9.0016507595       -4.3735865101
 C        -4.0191540897       10.2927680312       -6.5022688190
 H        -5.3601137748        6.8528234207       -8.2646000583
 H        -4.7660257862        8.4766620890       -8.5807252738
 H        -6.3848341591        8.2168791664       -8.0188643927
 H        -6.9909753493        9.6113317353       -3.4243438639
 H        -6.6531797858        7.9560774309       -4.3221483775
 H        -8.9347977823        8.4385872073       -5.3900768575
 H        -9.1270476982       10.1605826917       -4.8196787130
 H       -12.6177417775        6.3655513896       -2.0012814530
 H       -11.0550935315        7.1735181167       -1.5811390647
 H        -9.9316931899        5.0595482711       -2.3130838494
 H       -11.4910520584        4.2768116784       -2.3266582529
 H       -12.7891732866        3.5352069740        3.5375634156
 H       -13.0466537463        5.2984367116        3.2110898857
 H       -10.8789529540        5.3245880278        4.1448002864
 H       -10.3842242827        4.7630975600        2.6151608525
 H       -11.6149015501        0.0299043537        6.8837379447
 H       -10.2886768834        0.2181670516        5.6142905080
 H       -13.3248810400       -0.4706694320        5.3970027012
 H       -11.9883617654       -1.7156080715        5.3259738053
 H       -11.7456788314       -2.7871428268        0.0785959579
 H       -11.0912266847       -4.2310383371        0.7289475283
 H        -9.1828528469       -3.1250208362       -0.5287726301
 H        -8.8321757442       -3.2431199158        1.2926168210
 H        -7.5362294974        1.1527593554       -2.3313895758
 H        -6.2586107165       -0.1596003156       -1.8339974318
 H        -6.2527100511        1.5958383984       -1.2873211234
 H        -8.2294358779        0.4160053463        2.1893378146
 H        -6.6281690265        0.1864375808        2.1749744148
 H        -7.6373632299       -1.2026243577        2.7346697236
 H        -5.9930602601       -1.5656876979       -0.5704640884
 H        -7.3139843498       -2.6779316714       -0.3535351192
 H        -6.4344079230       -2.5746030340        0.9556102719
 H       -14.7229187726       -2.3265834284        3.0098507256
 H       -13.7457954022       -2.5942294562        4.4712553630
 H       -13.5559747075       -3.8262267375        2.9814503606
 H       -12.5350214559       -0.5433076558        0.8479682696
 H       -13.8627997292       -0.4395378848        1.6329502758
 H       -13.6240077257       -1.8824736406        0.4966369109
 H        -9.1695880894        1.6637921454        5.7211846815
 H        -9.3696204935        2.2942125454        7.4248106967
 H        -8.7804454665        3.3106512143        6.2138237434
 H       -12.0074834550        3.8371090148        7.5183818392
 H       -12.4308633944        4.4029808694        6.0440566521
 H       -10.6898145025        4.7234960130        6.7585845029
 H       -11.9745013150        7.0406596640        1.2694763618
 H       -13.7122766987        6.6357045844        1.4201860772
 H       -13.0660233149        7.0657486901       -0.1172985530
 H       -14.6110492713        4.4268229930       -0.1077513472
 H       -13.4321250906        3.4685676850       -0.8983429735
 H       -13.8338853058        5.1781845215       -1.2945688124
 H       -12.6549091886        9.2033609517       -2.2176663559
 H       -11.7121189556       10.5219769373       -3.1663956279
 H       -11.1617510630        9.3764382431       -1.6830200771
 H       -11.1424315951        8.1069733777       -5.7300717866
 H       -11.0173598025        9.9199548862       -5.8871678049
 H       -12.5145632940        9.0737702538       -5.3691519807
 H        -3.2039167049        9.3168716122       -4.2981719026
 H        -4.0159153498        7.9112705172       -4.4536062334
 H        -4.6923134201        9.2243221410       -3.5083583074
 H        -2.9913960151       10.0448784039       -6.8055637390
 H        -4.0103149420       11.2758954964       -5.9171045320
 H        -4.4641699772       10.4119999775       -7.4655110917
 Na      -10.3940697903        1.7429257108        1.5156990338
