117

 C        -5.2146847636        7.7698381399       -7.9966946821
 C        -4.7365736496        7.7528438452       -6.5770662073
 O        -4.4994290592        6.6803270195       -5.9965762953
 C        -4.7396544406        9.1558253225       -5.7654595507
 C        -6.2402149181        9.4935700287       -5.5168269226
 O        -6.7182864082       10.4762843864       -6.0397826569
 C        -7.2836529475        8.5733493186       -4.7378516730
 C        -8.5850431010        9.2588062355       -4.6703988475
 C        -9.5185149072        8.6657997843       -3.6997330746
 O        -9.0475983895        8.4048379828       -2.5562424940
 C       -11.0137414900        8.5460978637       -3.9571474358
 C       -11.4176778857        7.1273699497       -3.6712407558
 O       -11.6399992933        6.2988238282       -4.5103908449
 C       -11.4218630349        6.6819517909       -2.1532252035
 C       -11.1254382976        5.0998985728       -1.9364296872
 C       -11.1682560185        4.9216734651       -0.3683105263
 O       -10.1442423545        4.6893159908        0.2305350731
 C       -12.6568494335        5.0502499281        0.4017106490
 C       -12.4685958793        3.9299841174        1.4818743837
 O       -12.2832424086        2.8026498227        1.0124094167
 C       -12.2943060131        4.3753147284        2.9724414929
 C       -10.8012910291        4.4964904495        3.5706767319
 C       -10.4198071044        3.1664606046        4.2274840290
 O        -9.6428135543        2.4201822870        3.7070276281
 C       -10.7642984029        2.8144786303        5.8210197319
 C       -11.8673550304        1.6891385357        5.5853776431
 O       -12.9915381343        2.0538670776        5.3837305042
 C       -11.5299654019        0.2498517936        5.8053721589
 C       -12.4902544455       -0.6370594850        5.0002186957
 C       -12.3896596557       -0.4206017400        3.4708837362
 O       -11.7038574978        0.4758774190        3.0339136525
 C       -12.8584168526       -1.6650393295        2.6052589400
 C       -11.4700155231       -2.4809952335        2.5122158969
 O       -10.7220624900       -2.7045910346        3.4731872033
 C       -11.2656016623       -3.0564744252        1.0713320491
 C        -9.7870371326       -2.8018232316        0.6345168451
 C        -9.3363429159       -1.2441450084        0.7157264821
 O       -10.2419440693       -0.5015596986        1.0223972976
 C        -7.8439340501       -0.7356190050        0.6306474378
 C        -7.7622405704        0.7072294243       -0.0900461775
 O        -8.4843321000        1.6788309667        0.1743557012
 C        -6.8092451762        0.8096426964       -1.2514760816
 C        -7.4000609274       -0.5981648741        2.1056289660
 C        -6.9359891910       -1.8352160728       -0.0458204684
 C       -13.9297256978       -2.5588884302        3.3428018592
 C       -13.5189308778       -1.0295225330        1.3281304611
 C        -9.4516718411        2.3845216583        6.6594727666
 C       -11.4114851568        3.9864033446        6.5289533493
 C       -12.8485208049        6.4306740500        0.9232194700
 C       -13.6970791501        4.7067346505       -0.6099884308
 C       -11.9251876595        9.4257298414       -2.9041418123
 C       -11.5875050868        9.0340174332       -5.2591830668
 C        -3.9652407156        8.9057078873       -4.3352758762
 C        -4.1423865712       10.2520250352       -6.6140040361
 H        -5.2290932595        6.6915192118       -8.4253144597
 H        -4.4979999314        8.4479963650       -8.5089799513
 H        -6.2097533584        8.1991224566       -7.9528077575
 H        -6.9812724754        8.5014477835       -3.6999150030
 H        -7.3204032022        7.6682630695       -5.2804002926
 H        -9.1082928710        9.3777556549       -5.6152150647
 H        -8.5187464511       10.1992904817       -4.2683985022
 H       -12.4331975329        6.8081215445       -1.7179916195
 H       -10.7645704742        7.2157975433       -1.4562249765
 H       -10.0664670770        4.8614138593       -2.1836907318
 H       -11.7731965220        4.4474201873       -2.5380919930
 H       -12.9920078667        3.6734488651        3.5237292491
 H       -12.7235263115        5.3348059683        3.1658187579
 H       -10.9274053651        5.2840666453        4.3701062668
 H       -10.2473334064        4.9710958283        2.7320224543
 H       -11.7568005559       -0.0155257555        6.8054194255
 H       -10.5050962003       -0.0118399160        5.6151651225
 H       -13.5416824445       -0.3242487355        5.1893747878
 H       -12.1683337062       -1.6943230255        5.2266213928
 H       -11.9548427259       -2.6265600558        0.3016172959
 H       -11.5489662309       -4.1769801594        1.0440514144
 H        -9.6094860195       -3.1115121150       -0.3539843030
 H        -9.0910479688       -3.2490761403        1.2596489615
 H        -7.1382133124        1.6802944725       -1.8862333928
 H        -6.9519448332       -0.1355100949       -1.7732502862
 H        -5.7323821276        1.0021139202       -1.0535003102
 H        -7.7711973652        0.1565306882        2.7141156209
 H        -6.2819727494       -0.3661766703        2.1668322506
 H        -7.5199267807       -1.5053126972        2.5525097420
 H        -5.9293234760       -1.5337786507       -0.0151870801
 H        -7.1225843724       -2.2884303338       -1.0832897915
 H        -7.0393455033       -2.8215782538        0.5166723791
 H       -14.9401472345       -2.3567265372        2.9767860808
 H       -13.9282388803       -2.1821209324        4.3097654745
 H       -13.7389111311       -3.5409701447        3.2677824933
 H       -12.6884051691       -0.4610265074        0.7140586620
 H       -14.3276850066       -0.3444112164        1.6607431148
 H       -13.8830176419       -1.8011864475        0.6693074222
 H        -8.8423855322        1.4767549017        6.3151625770
 H        -9.8678062447        2.1428450692        7.6034683980
 H        -8.8092131187        3.2460240142        6.8422004160
 H       -11.7738593779        3.6620408066        7.5521559672
 H       -12.3174275680        4.0488708846        6.0840903453
 H       -10.7920621559        4.8559356542        6.7626314384
 H       -12.1339907675        6.8113564220        1.6435582161
 H       -13.8576306285        6.4264983133        1.3734979250
 H       -12.8941869999        7.1253633656        0.0906640011
 H       -14.6563104822        4.2862888791       -0.2258475246
 H       -13.3752033347        3.8809434161       -1.2030390601
 H       -14.1144904588        5.5827776688       -1.2185910066
 H       -12.9049181681        9.1425977841       -3.1138099194
 H       -11.6654814085       10.4345409636       -3.0498338177
 H       -11.9533261968        9.0315988057       -1.8772169703
 H       -11.1227832306        8.7641841350       -6.1725436294
 H       -11.4438259183       10.0199603424       -5.2017122520
 H       -12.7101634262        8.9637466468       -5.3094650416
 H        -2.9952425272        9.6075235306       -4.2770154488
 H        -3.5097667203        7.9664230359       -4.1718819726
 H        -4.6690565049        9.2259075074       -3.5309265446
 H        -3.3327665839        9.8256681431       -7.2124586236
 H        -3.8344329495       11.0846198960       -6.0619390003
 H        -4.7503373303       10.4385486663       -7.5206646538
 Na      -10.2728679948        1.9178981230        1.4397087733
