117

 C       -14.0954527598        4.0408531148       -9.1436933169
 C       -12.5122930625        3.8620482329       -8.8587073096
 O       -11.7930125859        4.8304777410       -8.6684227763
 C       -11.9733545042        2.3642254432       -8.8014349868
 C       -11.1875606570        2.0711275559       -7.4000920393
 O       -11.5899409631        1.2044416490       -6.6679844353
 C        -9.9207334672        2.9373208905       -7.1291423439
 C        -8.8538810776        2.3087025637       -6.1658905708
 C        -9.3453767783        2.6174346007       -4.6817164353
 O       -10.4648539234        3.0280016897       -4.4817566813
 C        -8.2409057739        2.3093742082       -3.5835387366
 C        -7.8842436082        3.5210976434       -2.7609365465
 O        -6.7434993671        3.8783409476       -2.5190572090
 C        -9.0764255872        4.2634182764       -2.2045777312
 C        -8.6300754038        5.6713132776       -1.6357384193
 C        -8.0831561279        5.7226304055       -0.1792703920
 O        -8.3542813184        4.8323022077        0.5950898548
 C        -7.4473076485        7.1042349030        0.3966954980
 C        -8.5092336272        7.6361307532        1.4925380737
 O        -9.6826150202        7.3775678308        1.3531057858
 C        -8.0279850416        8.7124378750        2.5790476105
 C        -8.9098569794        8.6514311776        3.9015949543
 C        -9.0915881402        7.1341538186        4.3216042127
 O        -8.2054286717        6.2600581273        4.2231308592
 C       -10.4985453937        6.8508786979        4.9645557885
 C       -10.7949440932        5.3213088969        4.8269634636
 O       -10.3105371448        4.6811396063        3.9279795439
 C       -11.9748486960        4.7278217634        5.6696965721
 C       -12.4068205473        3.2863183797        5.3093462582
 C       -13.0817152664        2.8712301131        3.9704760740
 O       -13.3270612284        3.5969601719        3.0282344827
 C       -13.1541929103        1.3236758503        3.7340844356
 C       -11.6301858333        0.9980137055        3.4263829971
 O       -10.8393181775        0.9182947122        4.3388809780
 C       -11.2811131513        0.5368205201        1.9679186432
 C        -9.8324230955        0.0245123888        1.9458829014
 C        -8.8181485677        1.1747765629        1.9920424975
 O        -9.1228983176        2.3494077474        1.7808420731
 C        -7.2845466834        0.9144619189        2.1112783371
 C        -6.7776501060        1.2769146044        3.5500677358
 O        -6.8879195259        2.4558368528        3.9614970136
 C        -6.1230762350        0.1993603909        4.4615433673
 C        -6.9725776134       -0.5530644765        1.8825089884
 C        -6.6302745991        1.7744464400        1.0554039854
 C       -13.6920205717        0.5392869808        4.9357662145
 C       -14.0377239553        1.0307069845        2.4801046412
 C       -10.7665883334        7.4900627771        6.3642966707
 C       -11.6327022495        7.4620427598        4.0165866977
 C        -5.9892243035        6.6417394212        0.9021612276
 C        -7.1331210226        8.2323125935       -0.6448349435
 C        -8.8664603077        1.3460346604       -2.5474857625
 C        -6.8529590859        1.7546008572       -4.0558338505
 C       -13.1572647566        1.3057876958       -9.0658089200
 C       -10.9034258843        2.2010990075       -9.9732691572
 H       -14.4551748185        5.0465905821       -9.1202833800
 H       -14.4667963803        3.4817406539       -8.2097449323
 H       -14.6687385770        3.5064451630       -9.9084119072
 H       -10.3628968683        3.8896268640       -6.7437711000
 H        -9.5224146659        3.1465687926       -8.0809912862
 H        -7.8579536755        2.6693196469       -6.3785492985
 H        -9.0070949892        1.2483027057       -6.1449511283
 H        -9.7551354485        3.7696659504       -1.3818584271
 H        -9.8205450605        4.5531615562       -2.9552826353
 H        -9.5551947211        6.2204276546       -1.6274053256
 H        -7.8681712155        6.0738905350       -2.3540210304
 H        -8.3116381477        9.7108435786        2.1323184444
 H        -6.9518685868        8.5770650325        2.8029844671
 H        -9.8573532170        9.0755474724        3.6710713183
 H        -8.4997943752        9.0756760967        4.8543732108
 H       -12.8450486849        5.3704066882        5.5069514043
 H       -11.8126051968        4.7843072545        6.7498009838
 H       -13.0650116558        2.9759478016        6.1906259163
 H       -11.4356260584        2.7272959370        5.2491942251
 H       -11.3432296509        1.3994948656        1.2869068915
 H       -11.9922424416       -0.1897831026        1.5639141694
 H        -9.6688697304       -0.5141129836        0.9955057744
 H        -9.5510878959       -0.6874545593        2.6780357036
 H        -6.1715323314        0.5098002914        5.4882058644
 H        -5.0873746284        0.1671293303        4.1476242551
 H        -6.5967545229       -0.7726055895        4.4670073465
 H        -7.1225941907       -0.6536859790        0.7604251603
 H        -7.6599154762       -1.2048869932        2.4291781803
 H        -5.9870541650       -0.7564319445        1.9752197760
 H        -7.0661220424        2.7431300979        1.1426275428
 H        -6.8829001684        1.4013166711        0.0714386164
 H        -5.5301239609        1.7812639345        1.2269791727
 H       -13.4111407585        0.9251294932        5.8802596802
 H       -13.3605399485       -0.5081133773        4.8650004634
 H       -14.7559368192        0.4370295330        4.8216940872
 H       -15.0044921600        0.5373466960        2.6707551995
 H       -13.7196070801        0.4950193529        1.6620128195
 H       -14.2573008992        2.0189801177        1.9972995953
 H       -10.6416166898        8.5607363721        6.2438907631
 H       -10.0878880518        7.0515911008        7.1474813954
 H       -11.7391144417        7.2923243498        6.7380128389
 H       -11.3287709225        7.1202781286        3.0316296981
 H       -11.7694641915        8.4853631277        4.0528142683
 H       -12.6168285631        7.0356946842        4.1172896482
 H        -5.3373744967        7.3341228534        1.4405333354
 H        -5.3662209365        6.4456605746        0.0827591830
 H        -6.1484927871        5.8173254144        1.6921041397
 H        -6.5865233593        7.8668668271       -1.4835947424
 H        -6.6584654396        9.1222301690       -0.2285012411
 H        -8.0614603118        8.7760671845       -1.0623931306
 H        -8.6628480760        0.3744553025       -2.8363929545
 H        -9.9277410775        1.4534252990       -2.7400777472
 H        -8.7231998500        1.5660831928       -1.4512941151
 H        -6.8084417658        0.7085880421       -4.3629391530
 H        -6.1916318050        1.6834036916       -3.1686064374
 H        -6.4832170745        2.3678809236       -4.9102991416
 H       -14.1071341039        1.5927102373       -8.5047415636
 H       -12.8470989313        0.2830559881       -8.6396611521
 H       -13.5025909749        1.2506544527      -10.0954601136
 H       -10.1652636307        3.0166121363       -9.6894299232
 H       -11.3264494951        2.2342507165      -10.9934766239
 H       -10.4248651717        1.2661211792       -9.7400572132
 Na       -8.3119690356        4.1608285029        2.9429887216
