117

 C        -4.6725856312        7.3072820846       -8.3710283585
 C        -4.3896349342        7.3846210959       -6.7961803870
 O        -3.9709751540        6.4517547707       -6.1643370068
 C        -4.6842343395        8.6675155202       -6.0732574103
 C        -6.0199621045        9.3166745672       -6.1985901522
 O        -6.3104999165       10.3183879658       -6.7895666680
 C        -7.1300434382        8.6261845666       -5.1841110063
 C        -8.4767985702        9.2449042771       -5.4150491100
 C        -9.3661503548        8.6396195561       -4.1068442163
 O        -8.7877859426        8.7918403521       -3.1074749810
 C       -10.9941580331        8.3602109225       -4.1958877338
 C       -11.2883661863        6.9669184875       -3.5341208101
 O       -11.1033899868        5.9971781813       -4.3002382021
 C       -11.8102067127        6.6611264424       -2.1097482327
 C       -11.5191573652        5.1864192984       -1.7899398004
 C       -11.4720257094        4.6862246760       -0.3692032377
 O       -10.4530441643        4.1667150137        0.0699380732
 C       -12.6936148427        4.9104229583        0.6329499126
 C       -12.5303074208        3.6658737198        1.6006166866
 O       -12.5461407230        2.5765153140        1.1188907951
 C       -12.3037236524        3.9086150681        3.1581842605
 C       -10.8502673516        4.2002211177        3.4786020784
 C       -10.1633344347        3.1202129489        4.3934042659
 O        -9.4792018992        2.2620058403        3.9336985147
 C       -10.6340287791        3.0073614229        5.7825026271
 C       -11.8711497708        1.9861102751        5.9822033617
 O       -13.0189652191        2.4404352566        5.9103990512
 C       -11.7440758082        0.5025746994        6.2300505436
 C       -12.7210981120       -0.3463259557        5.2825175691
 C       -12.7612876812       -0.1054520208        3.7008347865
 O       -12.3701771920        0.9617596472        3.2220361467
 C       -13.1792015723       -1.1433043786        2.7125238120
 C       -11.8265559742       -2.1866612510        2.5638914345
 O       -11.2849149467       -2.5411645280        3.5538150459
 C       -11.3829677030       -2.6862796595        1.1410918382
 C        -9.8403794460       -2.6755470466        0.9192754110
 C        -9.4406899815       -1.1038084233        0.7963805521
 O       -10.3156608369       -0.2814297916        1.0046778687
 C        -7.9028066775       -0.7186137412        0.6510590878
 C        -7.7225354807        0.7516735258        0.0856718435
 O        -8.5298666007        1.5935681629        0.2617061312
 C        -6.3704281623        1.0660650685       -0.5578148293
 C        -7.1778232596       -0.5221687275        2.0795387924
 C        -7.0422634927       -1.8236612260       -0.1171408266
 C       -14.1887496203       -2.1361709375        3.3846266722
 C       -13.5654934660       -0.4291496977        1.2793232538
 C        -9.4926770789        2.5600080561        6.7515616137
 C       -11.3465595182        4.3719586686        6.3122409160
 C       -12.4663429378        6.3747778758        1.4131986900
 C       -14.0126945003        4.9146634205       -0.1198452738
 C       -11.5652636244        9.5350939128       -3.4877569724
 C       -11.5907022400        8.4562618771       -5.6161113636
 C        -4.3693524537        8.4152061956       -4.6391004444
 C        -3.5397448635        9.7300750757       -6.6877171310
 H        -5.4170031166        6.5336114953       -8.3340496897
 H        -3.8299427841        6.8795674885       -8.9601953844
 H        -5.2857700495        8.2113067919       -8.7046356923
 H        -6.6829661595        8.8418427724       -4.2428349276
 H        -7.0891123236        7.5638407151       -5.2943884395
 H        -8.8375594321        9.1525986796       -6.3910727135
 H        -8.2694897887       10.3325481384       -5.3783120284
 H       -12.8383204787        7.0601331735       -2.0728743472
 H       -11.4054081965        7.3407536712       -1.3548136965
 H       -10.6276063213        5.0475033388       -2.3447505372
 H       -12.3224698126        4.6379582362       -2.3191912068
 H       -12.6317415318        3.2389356422        3.9440642439
 H       -12.9189963641        4.7869011816        3.5102629723
 H       -10.7933891447        5.1661716588        3.9734226905
 H       -10.1342270955        4.0746671300        2.5813439981
 H       -11.9767248588        0.2997067327        7.2609095501
 H       -10.7465209231        0.1351037938        6.1281099405
 H       -13.7240515695       -0.0729741861        5.7310106410
 H       -12.4390025579       -1.4410379927        5.3196897243
 H       -11.8687331154       -2.1463782911        0.2491156827
 H       -11.7162675972       -3.7012928953        0.9792434346
 H        -9.6525063611       -3.2811550194        0.1034351604
 H        -9.4718094596       -3.1690652091        1.7880594191
 H        -5.5136059808        0.6923926646       -0.0256201049
 H        -6.2372054626        2.1699029521       -0.5978537613
 H        -6.4662836970        0.4928931345       -1.4960792634
 H        -7.6254510340        0.3280023200        2.5938789488
 H        -6.1833075335       -0.4462359179        2.0523949286
 H        -7.3623033933       -1.2902889713        2.8483693650
 H        -6.4891067926       -1.8741646724       -1.1658088444
 H        -7.5790409672       -2.7507077282       -0.2531240308
 H        -6.2227725957       -2.0417635996        0.5346437779
 H       -14.7757734640       -1.5415661459        3.9556721974
 H       -13.7557912091       -2.8872305249        3.9847956744
 H       -14.9221755355       -2.5280477766        2.6774356366
 H       -12.6003448145       -0.1768772223        0.9822051470
 H       -14.3623064732        0.3349894392        1.2736136671
 H       -13.9813454613       -1.2415626774        0.5798673941
 H        -9.2747552424        1.5580955905        6.7578967385
 H        -9.7223122827        2.9165054437        7.7921293543
 H        -8.5971410547        3.0031639227        6.3320394746
 H       -11.5101720716        4.3200849366        7.3263147482
 H       -12.1185901817        4.7499108450        5.5593738030
 H       -10.5791483153        5.1244785801        6.1322754691
 H       -11.6032426538        6.4750246125        2.0933224726
 H       -13.3612077843        6.5563482038        2.0372811703
 H       -12.4219856183        7.1657825837        0.6923012156
 H       -14.8782476632        4.9284117276        0.5695930558
 H       -14.2356618886        4.1051111607       -0.8817689397
 H       -13.9982154702        5.6548902412       -0.8560477881
 H       -12.6499282608        9.3170462198       -3.4427610035
 H       -11.4890829297       10.3929563901       -4.2000887829
 H       -11.0032134942        9.8720813633       -2.6797399803
 H       -11.5748371765        7.4214872919       -6.0376271789
 H       -10.8432658873        8.9126715741       -6.3383801405
 H       -12.5543909994        8.7768853411       -5.7420929017
 H        -3.4311728522        8.0090477940       -4.5012020201
 H        -5.2511260403        7.7708519366       -4.1596183722
 H        -4.3772322337        9.4016835758       -4.0807111040
 H        -2.5622886892        9.1984590204       -6.5130449326
 H        -3.4800141713       10.7459094405       -6.1786739631
 H        -3.5762005931        9.8020017984       -7.7782369611
 Na      -10.3748430894        1.7746346087        1.7826223446
