117

 C        -4.6537946798        7.3577691732       -8.4709055051
 C        -4.3446903730        7.2151393106       -6.9214802010
 O        -4.0992874386        6.2223451577       -6.3335354953
 C        -4.3768621318        8.5183735113       -6.1921309657
 C        -5.7960335402        9.0635456671       -6.3916582299
 O        -6.0452896695        9.6753449986       -7.3796375435
 C        -6.9117552501        8.6411989263       -5.3569636841
 C        -8.4107053810        8.5430940855       -5.7362576768
 C        -9.2870998192        8.6064369983       -4.4029895769
 O        -8.7025836148        8.8963710993       -3.4100172715
 C       -10.9066629134        8.3828612634       -4.3462023402
 C       -10.9359947426        6.8859465506       -3.6390348039
 O       -10.6152077317        5.9295659084       -4.3844790447
 C       -11.2419503632        6.5981299057       -2.1133872595
 C       -11.5302251274        5.0871078639       -1.9033750135
 C       -11.5748482283        4.6986761712       -0.4082263778
 O       -10.7621586251        3.8118331865       -0.2310627529
 C       -12.6694768249        5.0937279285        0.7117254470
 C       -12.7797170152        3.9424357121        1.7178728668
 O       -12.8735306633        2.8343280464        1.3052459598
 C       -12.5308952532        4.2386281119        3.2109118259
 C       -10.9714186292        4.1129535579        3.5115699457
 C       -10.4344889376        3.0443994373        4.4487465520
 O        -9.8900970877        2.0290344312        4.1128318231
 C       -10.8725007286        3.1503482368        6.0192696824
 C       -11.9734633102        2.1298708612        6.2888542724
 O       -13.1148932406        2.5368140489        6.6133885811
 C       -11.6334120806        0.7128532171        6.1015401137
 C       -12.7461331159       -0.1450674346        5.3782189020
 C       -12.6424500265        0.0183346784        3.8339043546
 O       -11.9550047073        0.8838795353        3.2958078476
 C       -13.1254840712       -1.0364939441        2.8910910235
 C       -11.8781626747       -2.1082508581        2.6434339880
 O       -11.3030937500       -2.5433490010        3.5836005124
 C       -11.4674015183       -2.4944819487        1.2220527614
 C       -10.0031819471       -2.4602221529        0.9112733999
 C        -9.5100637291       -1.0077744181        0.8389053388
 O       -10.4106853695       -0.2299662781        1.0921734105
 C        -7.9813435770       -0.7122840706        0.7416852706
 C        -7.6832553545        0.7704939933        0.2698918450
 O        -8.5073670667        1.6275973333        0.4244038276
 C        -6.2429437495        1.1139003391       -0.4127269410
 C        -7.4740334808       -0.9253796449        2.3337592916
 C        -7.1800650143       -1.8266371751        0.1477835034
 C       -14.3117111685       -1.7535566997        3.4656706166
 C       -13.5180371238       -0.2343746889        1.4549849576
 C        -9.5524812703        2.4598237047        6.7609028851
 C       -11.0595182231        4.6274203189        6.5193559017
 C       -12.3676705085        6.5315572312        1.1876795516
 C       -14.1147959390        5.1397984972        0.0130512098
 C       -11.6521664240        9.4111627240       -3.6931522594
 C       -11.7202011235        8.2150336983       -5.7380433602
 C        -4.0951514862        8.2951458858       -4.6383787916
 C        -3.3659606650        9.5147657353       -6.7410917782
 H        -5.4285406108        6.6905593355       -8.6499825303
 H        -3.8297806964        6.9623706358       -8.9624347988
 H        -5.0378606312        8.3610565553       -8.7629756653
 H        -6.8470798984        9.4354858569       -4.5911045266
 H        -6.5929133076        7.7923148761       -4.7284396469
 H        -8.8020865473        7.6966487630       -6.3276246855
 H        -8.9372822455        9.3463788980       -6.1573141550
 H       -11.9085799384        7.2686479804       -1.5595499926
 H       -10.3546923643        6.9406750546       -1.6449679030
 H       -10.6725489645        4.5851445284       -2.3684136932
 H       -12.4022034495        4.7941763795       -2.5428945877
 H       -13.2085833557        3.5580846044        3.6655959007
 H       -12.8260025989        5.1606186732        3.5821503677
 H       -10.5653495348        5.0023553781        3.9509679193
 H       -10.4792475761        3.9848221026        2.5195320698
 H       -11.3761760012        0.3095142525        7.0934795907
 H       -10.6933315951        0.5031089665        5.5782283749
 H       -13.7184989976        0.0777610830        5.7499065014
 H       -12.4722541741       -1.1961395028        5.5120377062
 H       -11.9053960309       -2.0120047121        0.2563938519
 H       -11.9438238071       -3.5100534589        1.2189350761
 H        -9.8331473138       -3.1759906083        0.0731402155
 H        -9.6543764833       -2.9708331821        1.8402421897
 H        -6.2019746794        0.4939617629       -1.3159385916
 H        -5.3821061843        0.8451836558        0.2787046717
 H        -6.4018905645        2.1764442088       -0.7825615687
 H        -8.0214666015       -0.4499193581        3.1515922471
 H        -6.4702258570       -0.6520201331        2.3235658165
 H        -7.3918997705       -1.9585364835        2.7746588794
 H        -7.6945855232       -2.7921558062       -0.2458544372
 H        -6.6390970886       -2.3355770878        0.8229838579
 H        -6.6513146617       -1.5697576695       -0.7432575244
 H       -15.2825786949       -1.3111170765        3.2185531431
 H       -14.1512411717       -2.0436252536        4.5358464234
 H       -14.3045825368       -2.8406913227        3.0545493714
 H       -12.7311550027        0.4443922576        1.2787856100
 H       -14.3714309632        0.3459228191        1.7505608934
 H       -13.8848027479       -0.8720207357        0.6492464388
 H        -9.0774398709        1.6545214177        6.2681501072
 H        -9.9484738987        2.0238591210        7.7293987395
 H        -8.8843534976        3.2617163021        7.0913981331
 H       -11.4186468536        4.5002730094        7.5180851011
 H       -11.9389649139        5.0194938195        5.8812241788
 H       -10.3282614481        5.3517231738        6.2104316519
 H       -11.3373451049        6.5902440256        1.5557520293
 H       -13.0104356613        6.8817110303        2.0163734303
 H       -12.5037877286        7.1992195114        0.3855946284
 H       -14.7378615084        4.3159230898        0.4151763661
 H       -14.1952940940        5.2193562192       -1.0550157222
 H       -14.6298277166        6.0496904603        0.2186896850
 H       -12.7179236682        9.2579763439       -3.9465633608
 H       -11.5884614460       10.4522922674       -4.0587466566
 H       -11.2949344759        9.3905360412       -2.6497469047
 H       -11.1521988150        7.8629457741       -6.5833297162
 H       -12.3076387452        9.1646050768       -6.1177621655
 H       -12.4412620817        7.4960724851       -5.6717944128
 H        -3.1242132160        8.1199546203       -4.5915436623
 H        -4.6853634831        7.4825574824       -4.0805842258
 H        -4.2152838596        9.1882489415       -4.0988914813
 H        -2.3215746233        9.1500844651       -6.8475754498
 H        -3.3053889405       10.4496275041       -6.2248514389
 H        -3.8590304006        9.8509331171       -7.6450620316
 Na      -10.5973864901        2.1091005684        1.4573377498
