117

 C        -4.5711176660        7.2396977676       -8.5157536704
 C        -4.2963444149        7.1832005341       -6.9750825649
 O        -4.2160360351        6.0785483188       -6.3915161868
 C        -4.3372717894        8.6415867233       -6.2021191864
 C        -5.8516490004        8.9587712319       -6.3943359215
 O        -6.2649992745        9.4156456267       -7.4485766247
 C        -6.8471514979        8.6234719865       -5.2856320190
 C        -8.2374864673        8.4307799631       -5.7259538169
 C        -9.2252878179        8.6722587468       -4.4738501270
 O        -8.7410571065        8.9463756779       -3.4658284746
 C       -10.9206740007        8.3344661606       -4.4662211148
 C       -10.8236972456        6.8850598686       -3.8313034053
 O       -10.4332343810        5.8674485656       -4.4498589923
 C       -10.9647084178        6.5949064915       -2.2466013441
 C       -11.5884988962        5.1056022856       -1.9691910904
 C       -11.6408690235        4.5403772622       -0.5303208585
 O       -10.8025411759        3.7336387730       -0.0791211926
 C       -12.6827800710        5.1424828748        0.5944394148
 C       -12.7950718612        4.0654648805        1.8292345106
 O       -13.0929130264        2.9451672481        1.4517467302
 C       -12.4470945527        4.2905511866        3.3353356905
 C       -11.0339008776        4.3051791796        3.6654586214
 C       -10.5548227420        3.0521333576        4.5230469448
 O        -9.9392697486        2.1678600159        4.0342350561
 C       -10.7696748093        3.1975270522        6.0768472351
 C       -12.0302032090        2.1966760399        6.3500370221
 O       -13.0744890147        2.6040134474        6.7457842327
 C       -11.6186348935        0.7126637339        6.2171718924
 C       -12.6461930144       -0.1278867728        5.3007003256
 C       -12.4426222029       -0.0223655266        3.7916179719
 O       -11.8700149450        0.9538178518        3.2753622806
 C       -13.1971537658       -1.1332791486        2.9215278208
 C       -11.9814500672       -2.0704743652        2.5748495110
 O       -11.3616512452       -2.3749644603        3.5883192881
 C       -11.6240281309       -2.6115750839        1.2296979601
 C       -10.0871854578       -2.5010039058        1.0197372605
 C        -9.5483048192       -1.0115874345        0.9660803913
 O       -10.3071295880       -0.0603362183        1.0491923999
 C        -7.9749394693       -0.8036097620        0.7873810744
 C        -7.7450117384        0.6953057197        0.3565718152
 O        -8.4236276024        1.6691599653        0.5911225888
 C        -6.3675661865        0.9546401806       -0.1916927370
 C        -7.6643057504       -0.7468104636        2.3047160247
 C        -7.1955330843       -1.8914850094        0.0332242426
 C       -14.4442800250       -1.9291390991        3.3450713032
 C       -13.5409613952       -0.2909563695        1.5896235814
 C        -9.4452439263        2.6044290760        6.7096173719
 C       -11.1058180050        4.5883424564        6.5356285694
 C       -12.2772187478        6.5613353126        1.0690154233
 C       -14.1088567961        5.2234776505       -0.0116922731
 C       -11.5758716861        9.4892475204       -3.6828462582
 C       -11.6691192200        8.1228146023       -5.8568861651
 C        -4.0635786809        8.1693024438       -4.7084583062
 C        -3.2411044746        9.5892442885       -6.8350199709
 H        -5.3369905478        6.5005374886       -8.5029744570
 H        -3.7542368549        6.7756122989       -9.0925442324
 H        -4.9960553781        8.1568271747       -8.8567310942
 H        -6.7828574642        9.3542841326       -4.5240127456
 H        -6.5283669045        7.7891472815       -4.7515009316
 H        -8.4726597066        7.4398123216       -5.8262305662
 H        -8.6409126005        8.9116020011       -6.6244972713
 H       -11.3711937571        7.3051958900       -1.5482181784
 H        -9.9262892467        6.7210666905       -1.9424360150
 H       -11.1585374973        4.4507073369       -2.7371900724
 H       -12.6546017868        5.2512291382       -2.3104260078
 H       -13.0630902209        3.4997420444        3.6810659176
 H       -12.9266194383        5.1773245767        3.7477294006
 H       -10.5321274241        5.1991637578        4.0638050228
 H       -10.5529716872        4.0950181667        2.6524532830
 H       -11.6616245385        0.3114679521        7.2078176460
 H       -10.6217929504        0.4697751567        5.9789954924
 H       -13.6886272651        0.2728639573        5.4553008570
 H       -12.6276434440       -1.2193569884        5.5476751755
 H       -12.0338150703       -2.1075755560        0.3168536909
 H       -12.1400369770       -3.6318351499        1.2505827534
 H        -9.8294734206       -3.0393364134        0.1704617882
 H        -9.7566501174       -3.0208478277        1.8991480967
 H        -6.4472645141        0.9392602075       -1.3356032584
 H        -5.6571967810        0.1173654901        0.1381381567
 H        -6.1606634556        2.0395152350        0.0771831994
 H        -8.2904090373        0.0068950793        2.7652026487
 H        -6.6693214468       -0.5209185609        2.4491248087
 H        -7.8015604268       -1.5889782364        2.9403193641
 H        -7.5122560604       -2.9494252505       -0.0185494464
 H        -6.2011872522       -2.1522759250        0.5256892891
 H        -7.1164364542       -1.6174403571       -0.9745333489
 H       -15.2798143293       -1.2439288030        3.2836456475
 H       -14.3878702066       -2.4455720152        4.2427699216
 H       -14.6504215043       -2.7603527482        2.6314293144
 H       -12.6711613984        0.2613387058        1.4548014020
 H       -14.3529010998        0.4401965883        1.7926221013
 H       -13.8428978521       -1.0042454667        0.8448237820
 H        -8.9423990657        1.9972294565        6.0384653351
 H        -9.7300097217        1.9104458890        7.4982172141
 H        -8.8918783586        3.3591171388        7.2533748495
 H       -11.5060286457        4.4051568185        7.5088853272
 H       -12.0164833036        4.9790187844        5.9384845109
 H       -10.3916066384        5.3578394064        6.2816856139
 H       -11.2303132945        6.4428069037        1.3438417824
 H       -12.7863518485        6.8576782815        1.9792988730
 H       -12.4169216409        7.3690074075        0.3698935427
 H       -14.6604334117        4.3033101215        0.0473263102
 H       -14.2493091702        5.7452908958       -1.0521451019
 H       -14.7260264168        5.9249539775        0.5685143086
 H       -12.6144797082        9.2126579597       -3.4092630077
 H       -11.9535332458       10.2571079140       -4.3917276151
 H       -10.9277568793        9.8429740507       -2.9606717420
 H       -10.9460315273        7.8058794507       -6.7172642923
 H       -12.0610052614        9.0225764521       -6.1609009773
 H       -12.5067439524        7.4693747225       -5.9648763851
 H        -2.9765373086        8.0437377096       -4.4870734404
 H        -4.6092817352        7.2408979473       -4.4069400539
 H        -4.4055467555        8.9761208860       -4.0403869564
 H        -2.3349478053        9.0153290150       -6.8206963754
 H        -2.9673488950       10.5713215236       -6.3452338664
 H        -3.6171092003        9.9697376434       -7.7603127924
 Na      -10.6281597888        2.1538292525        1.4999302432
