117

 C        -4.4481096675        7.0911879790       -8.6096802982
 C        -4.3631741376        7.1051170453       -7.0871951133
 O        -4.2724966123        6.0640441284       -6.4442901440
 C        -4.3165922152        8.4599522717       -6.2882056967
 C        -5.9111685544        8.8825663087       -6.4256274451
 O        -6.3952846909        9.2161491468       -7.5184038201
 C        -6.8265375896        8.6034756747       -5.1684145362
 C        -8.2434488581        8.2803151346       -5.6820872108
 C        -9.3020271248        8.5594418291       -4.5733494900
 O        -8.9280802184        9.0823590954       -3.4799000155
 C       -10.7117345257        8.2308602281       -4.5344466219
 C       -10.6028350118        6.7459388268       -3.8554096383
 O       -10.3572955745        5.9336778808       -4.6373492460
 C       -10.7919715574        6.4921834845       -2.3104681092
 C       -11.6631298301        5.3085484960       -1.8975220952
 C       -11.6380264565        4.7055696298       -0.4907099276
 O       -10.8972932966        3.7893050699       -0.2183239925
 C       -12.6680004625        5.1751955173        0.5828618455
 C       -12.8082913212        4.1357315580        1.7938410903
 O       -13.3014788794        2.9953988375        1.5730918423
 C       -12.5198454086        4.4534406620        3.2673048952
 C       -10.9786752209        4.5606150869        3.6423120499
 C       -10.4830739745        3.2920906890        4.5266155278
 O        -9.9377183173        2.3813390123        3.8840780247
 C       -10.7023837066        3.1524944961        6.1212637360
 C       -11.9294834305        2.1300791700        6.4106647556
 O       -12.9462117419        2.6521007904        6.7681374446
 C       -11.7228438728        0.6376993119        6.2694219305
 C       -12.7140713164       -0.1480606211        5.3589956054
 C       -12.5603331413        0.0403165298        3.8252232749
 O       -11.8849710151        0.9114819023        3.3769165299
 C       -13.2368645719       -1.0450477941        2.7476192141
 C       -12.0632574368       -2.1170053225        2.6509017657
 O       -11.2936074425       -2.3552309943        3.6075089371
 C       -11.7198083162       -2.6899268121        1.2503325386
 C       -10.1215885843       -2.4995212921        1.0420434617
 C        -9.6693808547       -1.1085613726        0.8796480713
 O       -10.3800219212       -0.1383934937        0.9718966145
 C        -8.0636744511       -0.7498591258        0.9731894889
 C        -7.6813101008        0.6359049087        0.4763346482
 O        -8.4049816615        1.6059594386        0.7546761724
 C        -6.2713790094        0.8499214471       -0.1383084062
 C        -7.7171349633       -0.6047920872        2.4423944415
 C        -7.3672279253       -1.7837725065        0.0208030202
 C       -14.4026035939       -1.8894914350        3.2681657764
 C       -13.7567578273       -0.3600789537        1.4565568022
 C        -9.4012545627        2.8148381350        6.7969104003
 C       -11.1712412791        4.5335180928        6.6180798529
 C       -12.1119510290        6.5245697225        0.9783601491
 C       -14.1105121165        5.3023385805       -0.0227112261
 C       -11.4411392893        9.3412119461       -3.6292110813
 C       -11.3292731880        8.0037854685       -5.9173924211
 C        -3.8591666732        8.2229119355       -4.7996055511
 C        -3.4057954017        9.4515056673       -6.8075449772
 H        -5.2353111217        6.3165537121       -8.9479069045
 H        -3.4334389759        6.7166313971       -8.9191752742
 H        -4.6367394706        8.0920281179       -8.9211283452
 H        -6.8792849148        9.3615349928       -4.4184850158
 H        -6.3291225069        7.8188224470       -4.6519180522
 H        -8.5081194204        7.2569758992       -5.9854059565
 H        -8.4446782872        8.9992171935       -6.5387336909
 H       -11.2330090237        7.3838464238       -1.8473611452
 H        -9.8853704591        6.5483759210       -1.6441583841
 H       -11.2277049193        4.4923331587       -2.5035031036
 H       -12.6520287057        5.4489566569       -2.2997419529
 H       -13.2237324491        3.7279473579        3.7410651677
 H       -12.9498573537        5.4890653989        3.5080253553
 H       -10.7780402827        5.4698213388        4.2942429565
 H       -10.3203582396        4.6929614151        2.7684070390
 H       -11.7483377823        0.0870287255        7.1883607702
 H       -10.7215860954        0.3871563529        5.9795228624
 H       -13.8017372353        0.0912422761        5.6380672503
 H       -12.5396280292       -1.2301710914        5.5985096913
 H       -12.1282927071       -2.1058500094        0.5047620738
 H       -12.0759838087       -3.7003880954        1.0125607208
 H        -9.8675573155       -3.0529422721        0.1624630813
 H        -9.6904536979       -2.9646190136        1.8953751639
 H        -6.2930758294        1.3153402609       -1.1686779885
 H        -5.8189943215       -0.1125272721       -0.2077748485
 H        -5.7494674183        1.5619936758        0.4962855959
 H        -8.1644125126        0.2230859845        2.9089070048
 H        -6.5729172285       -0.5504656085        2.5970658614
 H        -7.9700262182       -1.3987260369        3.0345372756
 H        -7.3389568212       -2.7643846285        0.2547574431
 H        -6.2192840938       -1.6934727004       -0.0147631637
 H        -7.8306648642       -1.6981653764       -0.9953721346
 H       -15.0782703832       -1.2064639332        3.7825899262
 H       -14.0011155520       -2.5286238292        4.0123058663
 H       -14.8898151763       -2.4950188310        2.6429891864
 H       -12.9181140018        0.0963422848        0.8063392746
 H       -14.3757692134        0.5082399256        1.7589728809
 H       -14.3101677464       -1.1929048006        1.1124955519
 H        -8.7912655366        2.2140869282        6.0723095702
 H        -9.4643732733        2.2341114341        7.6456930156
 H        -9.0026369457        3.7083527816        7.2336178606
 H       -11.3659125408        4.3828842748        7.7287639704
 H       -12.0268537451        5.0241651322        6.2769457478
 H       -10.3413155879        5.1523979509        6.2857247116
 H       -11.0717805627        6.3732568473        1.2178926367
 H       -12.6055676842        6.9581897350        1.8212853318
 H       -12.2258641275        7.2828231056        0.1568328227
 H       -14.4263149086        4.4340304970       -0.6016029807
 H       -14.2062086432        6.1992873634       -0.6261768258
 H       -15.0149805336        5.3940688775        0.7394121005
 H       -12.2406670331        9.0066931505       -3.0147954695
 H       -12.0897601431        9.9215485726       -4.2120465534
 H       -10.6821885080        9.9163364442       -3.0327954130
 H       -10.8165732141        7.4741168007       -6.6698922003
 H       -11.5078493554        9.0103947339       -6.2272086781
 H       -12.4354592434        7.6624991792       -5.9720618630
 H        -2.7012960888        8.3439017073       -4.4706233345
 H        -4.1752432440        7.2832218935       -4.4371195495
 H        -4.4291541399        9.0501431332       -4.2424706851
 H        -2.4250231798        9.0725887612       -6.6551380905
 H        -3.3945024949       10.3145149647       -6.1241298641
 H        -3.7132127244       10.0184110385       -7.6996291482
 Na      -10.6083962184        2.1104884730        1.6518593243
