117

 C        -4.2877928117        7.0008990679       -8.6783288426
 C        -4.2753968851        6.9364469346       -7.1235373461
 O        -4.3486605326        5.9479289428       -6.5130792506
 C        -4.4336113976        8.3977882909       -6.2459124093
 C        -5.8920227572        8.6226829548       -6.4017143997
 O        -6.3462053388        9.0546016113       -7.4285530358
 C        -6.8244266140        8.5365755490       -5.2417938850
 C        -8.3067145183        8.2284216523       -5.5966359930
 C        -9.1865472973        8.6011070945       -4.3585934358
 O        -8.6565932201        9.3149735610       -3.4478380780
 C       -10.7042203435        8.1108033654       -4.5569876436
 C       -10.6625625766        6.6496668089       -3.9416044794
 O       -10.2632520049        5.7271190614       -4.6058147734
 C       -10.6375057510        6.4746250336       -2.3671283457
 C       -11.7179829567        5.4049954035       -2.0149159965
 C       -11.6417519369        4.6719221309       -0.5635168704
 O       -10.8779250888        3.7931033178       -0.3203344074
 C       -12.6388003079        5.2233648682        0.6055779972
 C       -12.8165108634        4.1572652111        1.7557094147
 O       -13.3894800354        3.0893083192        1.5662792587
 C       -12.5309016169        4.7273382116        3.2639004436
 C       -10.9644796798        4.7524387530        3.6921238475
 C       -10.5191019375        3.5088915090        4.4808727535
 O        -9.8324610499        2.6588411615        3.8606209564
 C       -10.5869951045        3.3438785811        5.9827576922
 C       -11.8374660074        2.1643894080        6.2582432724
 O       -12.8928645132        2.5404158252        6.7724996281
 C       -11.7598746843        0.5558798372        6.1613790793
 C       -12.8575467446       -0.2139913425        5.3465538442
 C       -12.7473188658        0.0514522087        3.8195717886
 O       -11.9973475528        0.9190860642        3.4442303804
 C       -13.2677174669       -1.0015124290        2.7669398719
 C       -11.9553736522       -1.8882760285        2.6037408177
 O       -11.3988233185       -2.3580192346        3.5755810336
 C       -11.6356072608       -2.6370414705        1.1999384511
 C       -10.0690098585       -2.5650193391        0.9653208388
 C        -9.7899936675       -1.0434166051        0.9878774947
 O       -10.6831371432       -0.2580385912        0.8447150187
 C        -8.1663348631       -0.6857820061        1.0429564448
 C        -7.6441454838        0.6864210331        0.5662969908
 O        -8.3053112963        1.6816521906        0.8053595333
 C        -6.2571625852        0.9904217541       -0.0810606985
 C        -7.6683009987       -0.7760019982        2.5536707603
 C        -7.5809424437       -1.9344821098        0.1853665497
 C       -14.3970198770       -1.8418522795        3.5169011497
 C       -13.7564273176       -0.3956505870        1.4364796062
 C        -9.3415264877        2.8689316871        6.7606868759
 C       -11.2576455633        4.6140818305        6.7822992644
 C       -12.0151815945        6.5908210275        1.0458366737
 C       -14.0990025630        5.3997788348        0.0160951601
 C       -11.5735634421        9.0055928150       -3.6759595287
 C       -11.1110479387        7.9758726736       -5.9634571307
 C        -3.8718695732        8.1997480590       -4.8989849500
 C        -3.5867887307        9.5212487375       -7.0278850359
 H        -4.9915111971        6.2781239459       -9.1646787045
 H        -3.2567220780        6.7995314045       -8.9730259974
 H        -4.4886690931        8.1184224266       -8.8417091132
 H        -6.7092673062        9.5146156036       -4.6985319292
 H        -6.3189401851        7.8702523039       -4.4662917719
 H        -8.6363489887        7.1104081241       -5.8782785435
 H        -8.5937649015        8.9039224266       -6.4434384187
 H       -10.7691189388        7.3939030923       -1.7557770295
 H        -9.7185819056        6.1713414195       -1.8560793194
 H       -11.4804847429        4.6309359767       -2.7451565717
 H       -12.6860528745        5.7457688882       -2.3062812815
 H       -13.2809161080        4.1679557950        3.9313679508
 H       -12.8612443993        5.8110312130        3.2697474717
 H       -10.8722491500        5.5022136065        4.4934431138
 H       -10.2015329412        5.0556723347        2.9994201435
 H       -11.7910439319        0.0073063758        7.1161724797
 H       -10.7602105314        0.1990373240        5.8175590131
 H       -13.8298953668        0.1012913762        5.7380219614
 H       -12.7420000487       -1.2878937124        5.6084149279
 H       -12.1758226635       -2.4365036761        0.3010495751
 H       -11.7723764854       -3.6320850660        1.3771159589
 H        -9.9460666479       -3.1457196778       -0.0199125007
 H        -9.7761494638       -3.2237586375        1.7831822935
 H        -6.4041949696        1.7109419894       -0.8155252743
 H        -5.8996828469        0.1051774369       -0.5030433968
 H        -5.6494795327        1.4406606749        0.6673626967
 H        -8.0514132543        0.0015532119        3.2397404886
 H        -6.5804868885       -0.7859023487        2.7375184058
 H        -8.0118470637       -1.7678101989        3.0047921316
 H        -7.5323079304       -2.8496011609        0.8565921293
 H        -6.5569373368       -1.8237411415        0.0492273112
 H        -8.0494806357       -2.2442421867       -0.7884180557
 H       -14.9637108116       -1.1810852493        4.1535481318
 H       -14.0479398790       -2.6572570775        4.1861181735
 H       -15.0378643814       -2.4063913205        2.8233730515
 H       -12.9134692124       -0.0547656573        0.7919761730
 H       -14.2408065927        0.5592131928        1.6959062080
 H       -14.3955846190       -1.2524924336        1.0874793991
 H        -8.7767697051        2.0603274225        6.2561647344
 H        -9.5186274677        2.6000137888        7.8134251529
 H        -8.8380597430        3.7916364077        7.0362583122
 H       -11.2585965681        4.3377637270        7.8337285411
 H       -12.2684982520        4.9661758874        6.6804003678
 H       -10.5712978970        5.3967387823        6.4983172434
 H       -10.9911380664        6.5092748319        1.4206651102
 H       -12.6836323632        7.1234573497        1.7355475513
 H       -12.0421045995        7.2299523232        0.1589901310
 H       -14.2054783142        4.8656957123       -0.9723938158
 H       -14.2562976091        6.4108712259       -0.2426219701
 H       -14.9995614264        4.9879248718        0.5331738876
 H       -12.3220527265        8.7234951813       -2.9629666737
 H       -12.1824052691        9.5911338402       -4.3017238730
 H       -10.7875875753        9.6349320093       -3.1217739325
 H       -10.7531303041        7.1019439367       -6.4057550977
 H       -10.9394222864        8.8972004865       -6.6788150640
 H       -12.1958460703        7.9126508006       -6.0682144151
 H        -2.8254417680        8.2107819757       -4.9984971039
 H        -4.0330993565        7.1390053723       -4.5179545389
 H        -4.1091467803        9.0145016261       -4.1695309942
 H        -2.5313635149        9.2527462751       -6.8809134592
 H        -3.6433725729       10.4385998776       -6.5180791698
 H        -4.0302390302        9.9004729151       -7.9503230221
 Na      -10.5889138612        2.0477052733        1.7282810827
