117

 C        -4.0851614091        6.9328928074       -8.6815567205
 C        -4.2092214125        6.9145445153       -7.1060643743
 O        -4.3951605730        5.8148729938       -6.6035678551
 C        -4.2805147770        8.1706379979       -6.3520260172
 C        -5.9113813867        8.5667934180       -6.4867551021
 O        -6.3963611557        8.8969337949       -7.5265142298
 C        -6.7435232985        8.4380184691       -5.1181479578
 C        -8.1666034864        8.1791499727       -5.5012073311
 C        -9.0793722763        8.6997612444       -4.3190778054
 O        -8.6989182838        9.3713746159       -3.4517943839
 C       -10.5604604646        8.0423347421       -4.4360274700
 C       -10.3755635281        6.5404074890       -3.8340786733
 O       -10.2903889991        5.5098980137       -4.5589872392
 C       -10.5333185615        6.2678126629       -2.3471476992
 C       -11.7564517176        5.3250412281       -1.9548184290
 C       -11.6495520808        4.7149331983       -0.5919852471
 O       -10.8630034472        3.7605361396       -0.3944399069
 C       -12.6100744681        5.3272985114        0.4721754376
 C       -12.7289892759        4.3428161793        1.7803556780
 O       -13.2261444987        3.2972323479        1.6518188791
 C       -12.5273309656        4.8106429161        3.2738114444
 C       -11.1082266896        4.9498771008        3.7564351248
 C       -10.4493200903        3.6713086725        4.5313170004
 O        -9.7644788494        2.9454105077        3.8640711376
 C       -10.6806540809        3.3579913623        5.9963115028
 C       -11.8831607083        2.1692147946        6.1624101939
 O       -12.9096916723        2.4536295450        6.6933059008
 C       -11.5997533891        0.6318489100        5.9603979250
 C       -12.8686011127       -0.0617779850        5.3253564819
 C       -12.6764551104        0.0659587037        3.8062812196
 O       -12.1211827974        1.1347672230        3.4237031584
 C       -13.3030200685       -1.0452711197        2.8698797756
 C       -12.1384434848       -2.1458614651        2.6178271848
 O       -11.4291219369       -2.2279710376        3.5681569415
 C       -11.7434893365       -2.6539009239        1.2712369658
 C       -10.1657563152       -2.4774544903        0.9617410144
 C        -9.7505411882       -1.0068205990        0.9726264795
 O       -10.6766174595       -0.1597716658        0.8019521056
 C        -8.2482043188       -0.8212165872        1.1332929445
 C        -7.7804080971        0.8237370717        0.6459278330
 O        -8.3865674864        1.8089489852        0.9068923202
 C        -6.3565162690        0.9840574313        0.0060930973
 C        -7.7496302378       -1.0416511803        2.5054683412
 C        -7.5281085626       -1.9490114141        0.4155340535
 C       -14.3750997692       -1.8418679779        3.6627231131
 C       -13.7714218610       -0.3704319997        1.5586367164
 C        -9.4406933033        2.8734178211        6.5628381130
 C       -11.2636110850        4.5686073076        6.8080069636
 C       -12.0189766900        6.6164182315        1.0330639957
 C       -14.0207973985        5.5362454419        0.0164849385
 C       -11.8306319433        8.7918159712       -3.7108899406
 C       -10.9369124033        8.0179340949       -5.9520999724
 C        -3.8610092073        8.0854003241       -4.9197723281
 C        -3.7979152924        9.5368737751       -7.3147102322
 H        -4.5260515562        6.0325650549       -8.9856512834
 H        -3.0169617623        6.8994121645       -8.9552112574
 H        -4.5545845617        7.8344862196       -9.1178108121
 H        -6.4598852714        9.3130235089       -4.4300225782
 H        -6.3076884679        7.5821378613       -4.4693320579
 H        -8.3614002477        7.0828264692       -5.6092386651
 H        -8.3497645464        8.6305350380       -6.5053975042
 H       -10.5288403981        7.1117736254       -1.6458034150
 H        -9.7066099692        5.7660722041       -1.9250837603
 H       -12.0607229215        4.6933153847       -2.7650252885
 H       -12.6203373420        6.0058865811       -1.8495419642
 H       -13.1303993038        4.0864461905        3.8311130543
 H       -13.0283477333        5.7700201697        3.3182410288
 H       -10.9921558682        5.8429501920        4.2898698644
 H       -10.3222485322        5.1184888355        3.0060816263
 H       -11.3691120085        0.0085626244        6.8602222783
 H       -10.6852312870        0.3955697862        5.3493778597
 H       -13.7193375934        0.4646166910        5.6706685132
 H       -12.9651005294       -1.0770737057        5.6709756055
 H       -12.2626639115       -2.0807006999        0.4547307097
 H       -11.8816237923       -3.6980639777        0.9939304089
 H       -10.2408059203       -3.0054905862       -0.0043583736
 H        -9.7622647709       -3.2422230757        1.6832218104
 H        -6.3947719170        1.9163750729       -0.4672967704
 H        -6.1375881006        0.1830428904       -0.6829626728
 H        -5.6854689682        1.0444679568        0.8568665288
 H        -8.1320488517       -0.1964838764        3.2076652450
 H        -6.7142685232       -0.9452968537        2.6120634663
 H        -8.0316265652       -2.0427276698        3.0330572682
 H        -7.5923597350       -2.9571648537        1.0130923268
 H        -6.4391090676       -1.7333478900        0.3479122018
 H        -7.8657496764       -2.1819858015       -0.5671413130
 H       -15.1433371231       -1.2657219233        4.2313729807
 H       -14.1629760096       -2.6815537938        4.3728534611
 H       -14.7733972320       -2.3816577612        2.6960712847
 H       -12.9200585228        0.0857284120        1.2042684656
 H       -14.3167315433        0.5347962336        1.8286439850
 H       -14.1979649210       -1.1889714565        0.9107985864
 H        -9.1878781498        1.9645720573        6.0791568748
 H        -9.2409294033        2.8678471509        7.6877976646
 H        -8.7726040526        3.7351264486        6.3799660478
 H       -11.3910598085        4.4132822970        7.8198899739
 H       -12.3476674868        4.8619369233        6.5476112764
 H       -10.5731636301        5.3767878330        6.5204600922
 H       -11.1358041771        6.4398281923        1.6747955401
 H       -12.8523327379        7.1275131180        1.5534890615
 H       -11.7470120379        7.2860572533        0.2568962149
 H       -14.3183925498        5.2501070015       -0.9991489551
 H       -14.2551066002        6.6574551428       -0.0030334395
 H       -14.6568376163        4.9591169259        0.5524553823
 H       -12.8166487475        8.3064207786       -3.4250636780
 H       -12.1327971247        9.5235299131       -4.5649533842
 H       -11.5895836194        9.2871352791       -2.8094768496
 H       -10.6938078024        6.9097685011       -6.2434292326
 H       -10.5068534442        8.6899355944       -6.6523067537
 H       -11.9251020151        8.1521116227       -6.1971328206
 H        -2.8340571186        7.9355260407       -4.9372884102
 H        -4.1754417347        7.1203639277       -4.4603396301
 H        -4.0106823996        8.9494234271       -4.3908017601
 H        -2.7451727085        9.6780352593       -7.5443722112
 H        -4.0636275375       10.4108259810       -6.7097177106
 H        -4.5106437995        9.7330146458       -8.0388871259
 Na      -10.5876033515        1.9913413702        1.6809674951
