117

 C        -3.8491648732        6.7900100009       -8.8251298475
 C        -4.2546195412        6.7534844140       -7.3121597739
 O        -4.3633502016        5.7771347279       -6.5686687691
 C        -4.3828968013        8.2295248209       -6.5374004514
 C        -5.8626315271        8.4644742779       -6.4707554846
 O        -6.5367513424        8.6633680903       -7.4912620144
 C        -6.6006149195        8.2552773363       -5.1305063804
 C        -8.0807141731        8.1267624188       -5.2860725797
 C        -9.0888979342        8.6146634162       -4.2727510310
 O        -8.9315309610        9.4303705454       -3.4103808722
 C       -10.4814950150        7.8619638908       -4.3875138772
 C       -10.3960186142        6.3939467201       -3.7571754038
 O       -10.2762750327        5.5558844855       -4.6178261150
 C       -10.3743288578        6.1353952187       -2.2036870182
 C       -11.6790441429        5.3656510994       -1.9400296802
 C       -11.7100541235        4.7198093353       -0.5109983219
 O       -10.9429423761        3.7526071741       -0.3629318053
 C       -12.5849037462        5.4242087967        0.6576762529
 C       -12.7473960010        4.4310492619        1.8977228686
 O       -12.9685726548        3.2571053129        1.5908462684
 C       -12.5212538436        4.9346263264        3.3361103955
 C       -11.1546298127        5.1202498184        3.8440716881
 C       -10.6056313657        3.7487190467        4.3672399521
 O        -9.7373886374        3.1553902710        3.8160902002
 C       -10.8087055163        3.3685793912        5.9342321785
 C       -11.9014851572        2.1547387805        6.2222383843
 O       -13.0357189715        2.4367997259        6.5470190059
 C       -11.3864691558        0.8572356564        5.8247007700
 C       -12.6400697374        0.1237488825        5.3213437309
 C       -12.7313039608        0.1788400255        3.8193109668
 O       -12.2918353560        1.1403414520        3.1963942872
 C       -13.3377410892       -1.0133344374        2.9262572198
 C       -12.0205133992       -1.9423293899        2.7101930764
 O       -11.3065265571       -2.3662010110        3.6341624770
 C       -11.9920167870       -2.6387334711        1.3029558024
 C       -10.4355894882       -2.4639077853        0.9725184954
 C        -9.8013916494       -1.0272952462        0.9313585860
 O       -10.4650335079       -0.0134452993        0.8114275198
 C        -8.2076814572       -0.7899054460        1.1462339947
 C        -7.8605931538        0.6979068478        0.8005754114
 O        -8.5597127021        1.6664301552        1.0568869887
 C        -6.5096936982        0.8377795635        0.1042003807
 C        -7.9462712426       -0.9814452076        2.6948102389
 C        -7.3093288020       -1.7558078338        0.3400168636
 C       -14.4503804796       -1.7662282438        3.6290128613
 C       -13.9118636918       -0.3579272984        1.6594183366
 C        -9.3781431396        2.8179655360        6.4360206498
 C       -11.3077103345        4.5617061563        6.7790846397
 C       -11.8905061462        6.8356653697        0.9417558183
 C       -14.0075122060        5.6305937429        0.0354386558
 C       -11.6754668373        8.5158624744       -3.7046898454
 C       -10.8524110962        7.8548175788       -5.9609793803
 C        -3.7467953201        8.1281232782       -5.1603027964
 C        -3.7742754923        9.3781520895       -7.2930029690
 H        -3.8277132539        5.7818888780       -9.1735107926
 H        -2.8816395949        7.2779544307       -8.9286479837
 H        -4.5356497613        7.3643460508       -9.2784039155
 H        -6.1962143339        9.2092502884       -4.6930887466
 H        -6.1859971187        7.5380033989       -4.4338957122
 H        -8.3264073875        7.1693493466       -5.5858255118
 H        -8.2699235388        8.7614433951       -6.1762493351
 H       -10.1715874314        6.8876362842       -1.4635675424
 H        -9.6394279067        5.3606543984       -1.9385628984
 H       -11.8075432470        4.6696571413       -2.7825281549
 H       -12.5517324592        6.0424582752       -2.1041553002
 H       -12.9293165937        4.1812598578        3.9223942905
 H       -13.1235895483        5.8285124426        3.3484486122
 H       -11.0372653233        5.9510883619        4.5133889293
 H       -10.3101693379        5.3741166615        3.1902827702
 H       -10.9477938106        0.2419665272        6.6208909408
 H       -10.5937694257        0.9506729117        5.0863390979
 H       -13.4725915525        0.6299329190        5.8054547771
 H       -12.6920605563       -0.8830394336        5.6810458869
 H       -12.5587409836       -2.0917231228        0.5114339993
 H       -12.3072353081       -3.7931109296        1.2569115461
 H       -10.2752745751       -3.0935130505        0.1537279603
 H       -10.0620202178       -3.0083293026        1.8321682618
 H        -6.3954210088        1.9935622916        0.0095208417
 H        -6.5413876175        0.3425915465       -0.8935713022
 H        -5.7575790339        0.3847693594        0.8065411356
 H        -8.3192325446       -0.2010301514        3.3625550768
 H        -6.8521549632       -0.9733567061        2.9811530533
 H        -8.3350236613       -1.9005038947        3.0239045025
 H        -7.6621680633       -2.7272726017        0.5120759432
 H        -6.1222800624       -1.7566653942        0.4029651635
 H        -7.5133895444       -1.5855520499       -0.7254200672
 H       -15.3015373468       -1.0541458358        3.9991778289
 H       -14.1936836369       -2.2363656664        4.6288863741
 H       -14.8009943570       -2.5663875790        2.9881035353
 H       -13.1864120289        0.4092598758        1.3929109066
 H       -14.6483929019        0.2531990682        2.0839397926
 H       -14.1310643929       -1.0649528230        0.9561516123
 H        -9.3659173417        1.7934700253        6.0707482561
 H        -9.2072921611        2.8719137483        7.4711726241
 H        -8.5228508592        3.4197281022        6.1111749720
 H       -11.5901996349        4.3325168916        7.8609564214
 H       -12.3041627234        4.8740091775        6.4658004822
 H       -10.5449845533        5.3797482930        6.7071132353
 H       -10.9291699427        6.8459152729        1.4361321403
 H       -12.6189970801        7.4817171195        1.4001835529
 H       -11.7651753279        7.2592582380       -0.0688253771
 H       -14.1423240777        5.3629601254       -0.9798642149
 H       -14.2504548262        6.7128132845       -0.0677153616
 H       -14.7433952713        4.9829561595        0.5681659447
 H       -12.5771435108        7.8833881046       -4.0391879076
 H       -12.0448022237        9.5391888675       -4.0636695679
 H       -11.8346619952        8.3088588364       -2.6554705258
 H       -10.4266407338        6.9593107388       -6.4149539408
 H       -10.4896757369        8.6690466203       -6.4603308816
 H       -11.9184812055        7.8739816613       -6.3015642189
 H        -2.6298988398        7.8672926754       -5.1714590910
 H        -4.1064644363        7.2817216432       -4.8104314763
 H        -3.8408370779        8.9668248676       -4.5381259744
 H        -2.7679662118        9.1253865937       -7.4140407057
 H        -3.8164226598       10.3964583063       -6.7974349910
 H        -4.3278297428        9.5867953436       -8.1819649011
 Na      -10.6826878211        2.0733803689        1.6152955892
