117

 C        -3.2026472504        6.1134231344       -8.7183342900
 C        -3.8882323477        6.3967142562       -7.4296207868
 O        -4.2795317372        5.5345596576       -6.6332477764
 C        -4.2569080408        7.8573560412       -6.9958102511
 C        -5.8761200166        7.8220013922       -6.9370626680
 O        -6.5139625914        7.5899853368       -7.9405567315
 C        -6.4824833678        7.9143714278       -5.4744237045
 C        -7.7890687904        7.1013963036       -5.4145555260
 C        -8.7070172834        7.7264280292       -4.4167284389
 O        -8.2614210906        8.3643193408       -3.4588360272
 C       -10.3104624432        7.2557207137       -4.2357469679
 C       -10.1085061824        5.8139490859       -3.8058803422
 O        -9.9103019830        4.9033321929       -4.5936466020
 C       -10.1531245688        5.3669773099       -2.2649681341
 C       -11.6096936255        4.8814728244       -1.7744877203
 C       -11.5660404419        4.7856987797       -0.3034702848
 O       -10.8602009615        3.9541419944        0.2680923311
 C       -12.3842345962        5.7832075547        0.6409802303
 C       -12.6855873735        5.1043284565        2.0776342037
 O       -12.9918413723        3.9465653678        2.2870253956
 C       -12.7309940441        5.9979978384        3.3464780744
 C       -11.3950452099        6.0673960021        4.1292628486
 C       -10.7760009673        4.5789117239        4.3054267156
 O       -10.3004897728        4.0068550100        3.3924434304
 C       -10.7335260225        3.9927611043        5.7409113543
 C       -11.8154937687        2.8042756905        5.6882972143
 O       -12.9938450348        3.0258179082        5.8120449824
 C       -11.1426508317        1.3585439221        5.4922529993
 C       -12.1730953016        0.2559415335        5.1779759777
 C       -12.5411801754        0.2856432818        3.6827197383
 O       -12.0062361595        1.0420317702        2.8993316974
 C       -13.5102682544       -1.0145740967        3.2080398464
 C       -12.5412158847       -2.0476108596        2.5736632787
 O       -11.7272127806       -2.7228885127        3.1945933695
 C       -12.3501146385       -2.0975507243        1.0064420036
 C       -10.7474024748       -2.1601727304        0.6610956114
 C       -10.1371983314       -0.7698706807        0.8197017921
 O       -10.6951938940        0.2947800280        0.5909660120
 C        -8.6586804657       -0.7741145855        1.4954237257
 C        -8.0534978102        0.6448228419        1.4187314534
 O        -8.6594420344        1.5816651993        1.8671891810
 C        -6.8065157248        0.9676516526        0.4064636287
 C        -8.9811028812       -1.0911737709        3.0654278401
 C        -7.6880855139       -1.9519028374        1.0389910834
 C       -14.2192079603       -1.7750512437        4.3749487454
 C       -14.5489263433       -0.6246399093        2.0886277948
 C        -9.3314761488        3.4921186303        6.0983394995
 C       -11.2348341777        5.0123704873        6.8060226390
 C       -11.4966598266        7.1057231418        0.7399836858
 C       -13.8800617166        6.2206556583        0.1750981165
 C       -11.1043775235        8.2060318234       -3.3523359156
 C       -10.8374563466        7.4442239469       -5.7155711504
 C        -3.7660089252        8.0494377390       -5.4603412678
 C        -3.7848375208        8.9693015904       -8.0788447487
 H        -2.1240353400        6.5853768933       -8.6868338050
 H        -3.8810539400        6.6088359213       -9.4641160629
 H        -3.1837685644        5.0158226249       -8.7542605200
 H        -6.6205706518        8.9684982277       -5.2407750267
 H        -5.9173429992        7.3683756240       -4.7335414642
 H        -7.3822240438        6.2971147611       -4.8914804416
 H        -8.3042293915        6.6737287506       -6.3298480133
 H       -10.0591559933        6.3640402358       -1.7724221808
 H        -9.3667761308        4.6092663777       -2.0815773949
 H       -11.8014908057        3.8884877860       -2.1393473749
 H       -12.3239935180        5.5514973690       -2.2767306191
 H       -13.5303874499        5.5322022278        3.9868682928
 H       -13.0084537218        7.1138358021        3.1432388639
 H       -11.6763883787        6.4796820123        5.0702227529
 H       -10.7031221410        6.7405632265        3.5298374699
 H       -10.4970014962        0.9881155360        6.2873784977
 H       -10.6397190647        1.3748465631        4.5361516497
 H       -13.0967659635        0.4199195084        5.7959187959
 H       -11.7877336709       -0.7108850682        5.6055140497
 H       -12.6927809363       -1.2999050804        0.4710310269
 H       -12.6936303747       -3.0129870410        0.5951184910
 H       -10.7158313110       -2.5551707825       -0.3598069431
 H       -10.2685923935       -3.0596083578        1.2435205664
 H        -6.3192238917        0.0301836169        0.0496389051
 H        -6.1007057047        1.4626890081        1.0224152754
 H        -7.2488532721        1.6641307222       -0.2968822623
 H        -9.4589696014       -0.2772899936        3.6134328798
 H        -7.9714442621       -1.3852140190        3.5722637288
 H        -9.5765948725       -1.9371899074        3.1800729688
 H        -8.1887621552       -2.8639600333        1.2821600305
 H        -6.6778532387       -1.9207115938        1.6336426542
 H        -7.4977187729       -1.8494762856       -0.0617240934
 H       -15.0325145732       -1.2235301435        4.8021276989
 H       -13.4987309954       -2.1402121194        5.0747875499
 H       -14.6843828478       -2.5706212900        3.9612281694
 H       -13.8377482355       -0.1750032746        1.3271788608
 H       -15.3982620995       -0.0959323958        2.5733730715
 H       -15.0325879350       -1.4969213982        1.7094022695
 H        -8.9061144574        2.6368183561        5.5663058209
 H        -9.3759006259        3.1524237619        7.0793563311
 H        -8.6174469319        4.2623561147        5.8773372783
 H       -11.0662832932        4.5334808408        7.8019921310
 H       -12.2082519925        5.3903549037        6.5850003162
 H       -10.5563590817        5.8213120198        6.9744417145
 H       -10.4325669212        7.0089297720        0.9753256622
 H       -11.9887492338        7.7939279519        1.4237948354
 H       -11.6244473875        7.5412898304       -0.2434279796
 H       -14.6274040663        5.4482893101        0.2947996186
 H       -13.8175642628        6.5393114862       -0.9077838803
 H       -13.9948476352        7.1582119450        0.7927763472
 H       -10.8807160709        8.1718753489       -2.3314446263
 H       -12.1683727623        8.1345791403       -3.4780296945
 H       -11.1298964693        9.1756402266       -3.7510393825
 H       -10.5639031807        6.5675025850       -6.1300196106
 H       -10.2423680519        8.1783054801       -6.2973067028
 H       -12.0046966691        7.4305650416       -5.9099839412
 H        -2.6083698862        8.3178838095       -5.4224677649
 H        -4.0105109424        7.2708919745       -4.7932537702
 H        -4.2391108647        8.9349996426       -4.9320236218
 H        -2.7456717419        8.8145783116       -8.3514303498
 H        -3.7003431480        9.8454658840       -7.3992065010
 H        -4.2368540221        8.9174256852       -9.0489203518
 Na      -10.9948042237        2.4317603622        1.7852235844
