117

 C        -2.8860861590        5.4481805774       -8.6522533881
 C        -3.4590204259        6.0621465048       -7.3347577957
 O        -3.3340937688        5.4781276609       -6.2788904777
 C        -4.0529581831        7.5272154931       -7.4019390258
 C        -5.7071422106        7.4037890795       -7.2508727287
 O        -6.4083471285        7.4850049437       -8.2377659567
 C        -6.3251993302        7.1871918571       -5.8518651305
 C        -7.8108454532        7.3422257827       -5.9692292477
 C        -8.5265836437        7.0220522520       -4.6472987685
 O        -7.9318167979        7.0208579797       -3.5594643640
 C        -9.9747743494        6.9248139823       -4.5416157641
 C       -10.2557977809        5.4149873365       -3.9333567548
 O       -10.5084901363        4.4902021288       -4.6294342423
 C       -10.0547415460        5.4266166947       -2.4400627568
 C       -11.3599838752        5.1896422112       -1.6892327186
 C       -11.5629873827        4.8062041998       -0.1677308860
 O       -11.1912544538        3.7368747189        0.2345890867
 C       -12.3475516683        5.8903308586        0.7179203731
 C       -12.4297739067        5.3886070718        2.1806135356
 O       -12.5824048127        4.1724718704        2.4795875714
 C       -12.8228509194        6.3555440949        3.2817584213
 C       -11.5856143512        6.4819978905        4.3047109477
 C       -10.7245511976        5.1240985346        4.3946290863
 O       -10.2525232725        4.7458766864        3.3328130169
 C       -10.7689279599        4.2680406118        5.7375668117
 C       -11.7696826981        2.9998950924        5.5375758661
 O       -12.9782882556        3.1712290235        5.4194395491
 C       -11.1763639018        1.6689770489        5.2707440716
 C       -12.1774489983        0.5858608623        5.2232782682
 C       -12.7366317048        0.2473278834        3.8025039166
 O       -12.4681017166        0.9600508290        2.8686497000
 C       -13.7152034546       -1.1409472815        3.6050715087
 C       -12.8329292690       -1.9660338495        2.5954281975
 O       -12.1307732378       -2.9124831874        2.9420880933
 C       -12.7402479232       -1.6594802252        1.0806600911
 C       -11.2556146858       -1.5991922889        0.7564075661
 C       -10.3501359811       -0.3396428837        0.9451341727
 O       -10.7358130180        0.7621871253        0.6306180747
 C        -9.0511254617       -0.6357730328        1.6421814983
 C        -8.0862226460        0.7471023759        1.6450742689
 O        -8.4347968397        1.7608474398        2.3037263936
 C        -6.8168981845        0.8445662214        0.8285754461
 C        -9.3816790656       -0.9023921616        3.1258249668
 C        -8.2529540428       -1.8425916427        1.0642149736
 C       -13.9336818069       -1.9644382421        5.0352917670
 C       -14.9696176025       -0.7676287054        2.7735187186
 C        -9.4082581802        3.8337188247        6.1313752244
 C       -11.4416039908        5.1926684080        6.8526212903
 C       -11.4806525371        7.2150551697        0.6771878907
 C       -13.8009234479        6.3063324968        0.2221665194
 C       -10.5529838999        8.0784973027       -3.4852859786
 C       -10.8866822023        6.8792844619       -5.7906017017
 C        -3.3283195446        8.2696261431       -6.2675802377
 C        -3.6644951923        8.3745883030       -8.7059113977
 H        -2.8964167918        6.1156752177       -9.5292381086
 H        -3.7012477146        4.6532643923       -8.8437933749
 H        -1.9393687887        4.9439783721       -8.2705884733
 H        -5.8463891622        7.8752910752       -5.1237966218
 H        -6.0286152732        6.1358082695       -5.5709118055
 H        -8.1294526196        6.6235524169       -6.7107864266
 H        -7.9899721584        8.2445583481       -6.5265939511
 H        -9.6847742501        6.4322382575       -2.2179695632
 H        -9.3545374715        4.5910085938       -2.1519925343
 H       -11.9104420923        4.3086786004       -2.0815163215
 H       -11.9209494267        6.1179178859       -1.8123550834
 H       -13.7661729366        6.0941736789        3.8883891801
 H       -13.1640434817        7.3382598494        2.8056849474
 H       -12.0381361220        6.6487149372        5.3243169167
 H       -11.0596691310        7.3331560875        3.9575923572
 H       -10.3912246032        1.3866781824        5.9908705053
 H       -10.6881678981        1.7945408093        4.2898670502
 H       -12.9221977356        0.9966179392        5.9734809682
 H       -11.8821860160       -0.3625530270        5.7244729568
 H       -13.3125193323       -0.7811432127        0.7481306773
 H       -13.0958082634       -2.5451797872        0.6920666622
 H       -11.0499969462       -1.8253608985       -0.3782214571
 H       -10.7671277303       -2.4326630091        1.2340211255
 H        -7.2189847503        1.1442660640       -0.1131664124
 H        -6.6507645057       -0.2722734601        0.6676451123
 H        -5.9205564321        1.3652881133        1.2015033126
 H        -9.8919989335       -0.0183459301        3.5784444657
 H        -8.5238716228       -1.2164981325        3.5877221525
 H       -10.2246584432       -1.6596884240        3.2826511972
 H        -8.9593467502       -2.7828217309        1.0162831328
 H        -7.5167494413       -2.0290283693        1.7994153442
 H        -8.0475026192       -1.6731200187        0.0472337239
 H       -13.8633023152       -1.3793709121        5.8584216322
 H       -13.2616313318       -2.7312521825        5.0405037872
 H       -14.8032763251       -2.6226661326        5.0474614056
 H       -14.6085101663       -0.0001842493        2.0518521947
 H       -15.5575974888       -0.0977571730        3.4284886185
 H       -15.3477120632       -1.7923804028        2.3337869892
 H        -8.9260999140        3.3241999261        5.3267317143
 H        -9.2899334372        3.1956838201        7.0290669290
 H        -8.8976549881        4.7273138164        6.4646045361
 H       -11.5121921226        4.7072934423        7.7841165033
 H       -12.4416158471        5.5759407752        6.7725643139
 H       -10.7777282455        6.0237104639        6.7838067186
 H       -10.6898420202        7.0532866287        1.3888620616
 H       -11.9604139039        8.1554657003        0.8467940249
 H       -10.9959784918        7.2780252654       -0.3249977919
 H       -14.3313205393        5.3276567628        0.3286092273
 H       -13.7270972655        6.8762426062       -0.6823097708
 H       -14.2395634246        7.0515775097        0.8841702220
 H        -9.7562363600        8.5999312102       -2.9365498957
 H       -11.1637949219        7.8251340413       -2.6698767329
 H       -11.1690025773        8.8098090374       -4.0783812984
 H       -10.8328195703        6.0372442564       -6.6290050231
 H       -10.5170960360        7.7758206375       -6.2755333597
 H       -11.8109517637        7.0493296933       -5.4470217103
 H        -2.2720619169        8.1509026811       -6.3408939830
 H        -3.6711412787        7.8889116811       -5.2275142599
 H        -3.7260395102        9.3212622640       -6.1879113735
 H        -2.6276646553        8.1376645210       -8.9668642293
 H        -3.8383275584        9.4392267446       -8.4619603898
 H        -4.4335161376        8.0032630194       -9.4630059455
 Na      -10.7924195686        2.4712942644        2.2646980639
