117

 C        -3.0176240782        4.7550195475       -8.3168671956
 C        -3.2703982357        5.8911291633       -7.3026609168
 O        -2.9736395737        5.7802116655       -6.1181079902
 C        -3.8911405657        7.2588856126       -7.7588974048
 C        -5.4968766518        7.0845856935       -7.7170444135
 O        -6.3028433185        7.3553662895       -8.5962370532
 C        -5.9776978140        6.6958934514       -6.3069849587
 C        -7.4179232681        7.1068390338       -5.9827183814
 C        -8.1045645500        6.5166033984       -4.7763968521
 O        -7.4381873498        6.0520269180       -3.9188278813
 C        -9.8480007097        6.6476751660       -4.7814834372
 C       -10.3281858315        5.4121139548       -4.0767630280
 O       -10.8391152507        4.4521196603       -4.7268268748
 C       -10.1771316702        5.0998138365       -2.4681188964
 C       -11.5257802231        5.2348326935       -1.7952504983
 C       -11.5901560804        4.8591125343       -0.2636434046
 O       -10.8240247424        4.0380294527        0.1857826631
 C       -12.4476454389        5.8455913451        0.7906591803
 C       -12.6396060649        5.2371563328        2.2812048455
 O       -13.0504426135        4.0718646074        2.3693287940
 C       -12.7349483432        6.2437813445        3.4112740298
 C       -11.4538176133        6.5532330584        4.2185934414
 C       -10.6699742255        5.3257625454        4.5283352953
 O       -10.1306964992        4.6844027470        3.6226997000
 C       -10.9027367390        4.4803028671        5.9206415105
 C       -11.8445054099        3.3390320130        5.4900865347
 O       -12.9760682173        3.6109845295        5.3860929098
 C       -11.1461752860        1.9372907864        5.5149922001
 C       -12.1936176350        0.7540815072        5.5236315215
 C       -12.8576523738        0.5142672619        4.0951727820
 O       -12.8163364252        1.2580676461        3.1475315812
 C       -13.5771643037       -0.8952751347        3.7807275369
 C       -13.0457720294       -1.6124330534        2.5985696859
 O       -12.4763616887       -2.6714929318        2.7803994866
 C       -12.9878275515       -1.0768291357        1.1259615342
 C       -11.5226331889       -1.4704821412        0.7273065830
 C       -10.5334239076       -0.2731731045        1.0573817830
 O       -10.7703293116        0.8987121335        0.9299442353
 C        -9.1573662305       -0.5699724617        1.5743249078
 C        -8.3013073037        0.7600526359        1.8290016840
 O        -8.9546490114        1.6835030744        2.3378361180
 C        -6.8617266103        0.8052846649        1.2711613107
 C        -9.3563645986       -1.1828651119        3.0357216721
 C        -8.4023152294       -1.7419992425        0.8363255962
 C       -13.5494828116       -1.7284332008        5.0231636706
 C       -14.9738761742       -0.5233059648        3.3398643670
 C        -9.4106775086        4.0848299442        6.3857266393
 C       -11.4906873033        5.2607225181        7.0409788985
 C       -11.4136104581        7.0432796728        0.7017536615
 C       -13.9173785542        6.2895866266        0.3859496717
 C       -10.0924394332        7.9515512707       -3.9199583915
 C       -10.4308019148        6.5362063728       -6.0807039574
 C        -3.5010403029        8.3463721639       -6.6810285004
 C        -3.4175593122        7.8878956943       -9.1399747480
 H        -3.4129909920        5.1025527068       -9.3163265690
 H        -3.7103865630        3.9477701707       -7.8923865411
 H        -2.0050295283        4.4752836613       -8.2837224311
 H        -5.2639649754        6.7834683758       -5.4993961665
 H        -6.0033725973        5.5914823224       -6.3386910020
 H        -7.9955481095        7.0621842181       -6.9014376150
 H        -7.4376949249        8.1794745699       -5.8172315773
 H        -9.3339897487        5.6866215100       -2.0140140717
 H        -9.7155632147        4.0653914454       -2.4418941712
 H       -12.2248824131        4.5555530937       -2.3188619513
 H       -11.8178005223        6.2924964187       -1.9126559126
 H       -13.5491790353        5.9027334951        4.1685050238
 H       -13.1874861348        7.2336317952        3.0962041338
 H       -11.7727516496        7.1790067042        5.1146205645
 H       -10.8392062897        7.2004671276        3.6622936253
 H       -10.4151394903        1.8813962172        6.3071357730
 H       -10.5428953351        1.6339406760        4.6642004170
 H       -13.0217222176        0.8038762798        6.3134822318
 H       -11.6285702343       -0.1527079690        5.8529473625
 H       -13.2757047105       -0.0514788146        1.0816162301
 H       -13.5540501836       -1.5726590943        0.4624424453
 H       -11.5120380711       -1.7410511351       -0.3512963473
 H       -11.1409888060       -2.2319018332        1.3275856069
 H        -6.9219904431        0.1187464840        0.4229309721
 H        -6.1171816916        0.5201168226        2.1195580261
 H        -6.5492925521        1.7928249611        0.8090881333
 H        -9.9252344306       -0.5044719416        3.6636780518
 H        -8.3992177839       -1.1598200943        3.4264206921
 H        -9.8010911127       -2.1690371423        3.0636726140
 H        -9.1624186272       -2.5527564988        0.8197880880
 H        -7.4669889318       -1.9035100791        1.4947137289
 H        -8.0865071933       -1.4670366232       -0.1420341086
 H       -14.3115232552       -1.4261720551        5.7084812932
 H       -12.6981500527       -1.6411538256        5.6451666673
 H       -13.6652434518       -2.7890630106        4.7723361122
 H       -15.0714590922       -0.0837299342        2.3455436198
 H       -15.2521528626        0.2913223958        4.0295416728
 H       -15.5057906010       -1.5362289933        3.3437511709
 H        -8.8576447148        3.9329027080        5.5281928222
 H        -9.3560579077        3.1582276678        7.0263579913
 H        -8.9544006052        4.7572184705        7.0934182346
 H       -11.7924162654        4.6421782218        7.8298993514
 H       -12.5457188322        5.5743763980        6.7482095781
 H       -10.9433430436        6.2022918952        7.3332428642
 H       -10.3449740360        6.8595829650        0.6739176044
 H       -11.6503236841        7.8680288786        1.3632200950
 H       -11.5982815461        7.4266255536       -0.3294701278
 H       -14.6872085133        5.4218248616        0.5146731832
 H       -13.9073217388        6.7621928722       -0.6570427735
 H       -14.1336447237        7.0523829169        1.0985547431
 H       -10.5672201788        7.4996797998       -3.0394557861
 H       -10.9182745364        8.6301017862       -4.0822459357
 H        -9.2062664060        8.3060354879       -3.4561455792
 H       -10.1202997548        5.5869017166       -6.5097212566
 H       -10.3220625185        7.4335518171       -6.7126654774
 H       -11.5617611696        6.6225376546       -5.8814371657
 H        -2.5342257620        8.9006985656       -7.1268120893
 H        -3.1859255846        8.0197653084       -5.7246669554
 H        -4.2292272662        9.2243813408       -6.7757014050
 H        -2.4546275747        8.2205633828       -8.7813865560
 H        -4.0490211424        8.6604511414       -9.4227993319
 H        -3.5530978046        7.1905975742       -9.9278738310
 Na      -11.0580691154        2.8886904259        2.3853338240
