117

 C        -3.2303019524        4.5992029668       -8.0517635278
 C        -3.1441136667        5.9326018505       -7.1835448985
 O        -2.7054335570        5.9173889559       -6.0439639844
 C        -3.8832040414        7.1020716721       -7.8756990037
 C        -5.3537691642        6.8236865919       -7.7815444827
 O        -6.1514191078        7.0928928590       -8.6439385577
 C        -5.8011467474        6.2053527742       -6.4557641498
 C        -7.2916633103        6.7022298312       -6.0646022457
 C        -7.9910828363        5.8193233027       -4.9803624928
 O        -7.2558383624        5.2445031279       -4.1837002446
 C        -9.5833915129        6.3214829332       -4.8125764509
 C       -10.4671182555        5.2945703003       -4.0408574987
 O       -11.1710853937        4.4169522717       -4.5208372875
 C       -10.3499250355        5.2701019389       -2.4281591564
 C       -11.6288604157        5.2704555669       -1.6676992523
 C       -11.4156260403        5.2113320306       -0.1167006525
 O       -10.8780304256        4.2414981979        0.3505702984
 C       -12.4008264846        6.1649455063        0.6446012436
 C       -12.7047364417        5.3888021709        1.9496303755
 O       -12.7830176855        4.1310461091        1.8618370962
 C       -12.8050199712        6.0391796790        3.3737628049
 C       -11.3973811030        6.3987057771        3.9306642312
 C       -10.5865202798        5.2734672550        4.4456886816
 O        -9.7258717440        4.6934802478        3.8561008145
 C       -10.8635410844        4.7073242998        5.8771460124
 C       -11.7783511560        3.3888863297        5.8289199515
 O       -12.9960453513        3.4150030241        5.9156622511
 C       -11.1583988144        1.9678847627        5.7381934929
 C       -12.2047188960        0.7605446121        5.5449707344
 C       -12.7239083985        0.5138678122        4.1862810121
 O       -12.6550991886        1.2630521521        3.2706078227
 C       -13.7600517943       -0.7404072969        4.0176119313
 C       -13.0466560191       -1.5810114415        2.7855151567
 O       -12.4413479994       -2.6119920522        3.0802139368
 C       -13.2006094601       -0.9796762476        1.3074091722
 C       -11.8455819228       -1.1744488029        0.5706377235
 C       -10.7274197300       -0.1157225246        0.9808051356
 O       -11.0435908838        1.0452971404        0.8338205200
 C        -9.2807290909       -0.4798714323        1.4981797682
 C        -8.4115889375        0.8772541763        1.9492858649
 O        -8.9304781476        1.7867264388        2.6571646752
 C        -7.0161873930        0.8789276918        1.7781253745
 C        -9.5833164058       -1.2761020497        2.8578951219
 C        -8.5289734376       -1.3679393140        0.4986705806
 C       -13.9656767470       -1.6982592169        5.2198812012
 C       -15.1120261260       -0.0843356097        3.6056157951
 C        -9.4637347219        4.4211606028        6.5199719649
 C       -11.6506950235        5.6431609534        6.7162532562
 C       -11.7270628979        7.5406955163        0.8781773654
 C       -13.7601763581        6.5488516873       -0.2332249462
 C        -9.6552805924        7.6893699549       -3.9982928860
 C       -10.2267104720        6.2912474569       -6.1381351048
 C        -3.4493443701        8.4995136561       -7.1220134528
 C        -3.3959493536        7.2851555457       -9.4066377841
 H        -4.1064981671        4.6657860191       -8.6326495518
 H        -3.2456180764        3.7794391521       -7.3776900391
 H        -2.4427404256        4.5936712582       -8.7011065177
 H        -5.1317046019        6.2857335299       -5.6604143909
 H        -5.8461150039        5.1202663045       -6.5162101454
 H        -7.8799906998        6.4836120059       -6.9565546231
 H        -7.4510088280        7.8586290599       -5.9202438982
 H        -9.7554623820        6.0688963812       -2.0212455054
 H        -9.6010681063        4.4964336573       -2.1950315094
 H       -12.1958578027        4.3967065736       -1.9763087725
 H       -12.2312425912        6.1436833977       -1.8593310035
 H       -13.2903368100        5.4297577294        4.1189036869
 H       -13.3664421236        6.9447734979        3.2651359426
 H       -11.6999854493        7.0669405707        4.7653474792
 H       -10.6947879135        6.9486109616        3.3478421770
 H       -10.5943961290        1.6843210276        6.6352989881
 H       -10.3660260830        2.1198963902        5.0036421127
 H       -13.0554845220        1.0588394399        6.1356422921
 H       -11.8290688645       -0.0637037313        6.0870875409
 H       -13.7029269449        0.0492150954        1.4228447718
 H       -14.0142976815       -1.5776518546        0.8848749188
 H       -11.8196118761       -0.9288521723       -0.4985312152
 H       -11.4119027406       -2.0630521681        0.7939045751
 H        -6.6968105738       -0.0750719726        1.5263834540
 H        -6.5837129129        1.3909093735        2.6240721300
 H        -6.7112054859        1.4597450196        0.9426578944
 H       -10.0121346824       -0.6154590567        3.6656101946
 H        -8.7770885982       -1.7545405764        3.3093488511
 H       -10.2762524219       -2.0997500622        2.4499198695
 H        -9.2118747730       -2.2877463866        0.4830776639
 H        -7.5546987039       -1.6918353574        0.9793875531
 H        -8.2338113490       -0.8643731135       -0.3694972417
 H       -13.6845559719       -1.3635717325        6.2481881804
 H       -13.1349849855       -2.3995695655        5.1333675677
 H       -15.0845725381       -2.0833394448        5.2256223142
 H       -14.9674026240        0.6917682789        2.9220087987
 H       -15.6059036367        0.1363139521        4.5443974598
 H       -15.6418644677       -0.9100505284        3.0437257253
 H        -9.0012025039        3.5650290425        6.0612570515
 H        -9.4885358377        4.3812787462        7.6374915260
 H        -8.7567495835        5.2390319254        6.2019956866
 H       -11.4519178372        5.4551468708        7.7496523135
 H       -12.7358736194        5.7099550531        6.4278496240
 H       -11.2901856089        6.6939560546        6.7419874827
 H       -10.8399363440        7.4044164279        1.4766219794
 H       -12.3669420939        8.2306026889        1.3746531148
 H       -11.2998603982        8.0222551704       -0.0335426014
 H       -14.0738276948        5.7008402786       -0.8528821347
 H       -13.5018149947        7.1820004680       -1.0243855147
 H       -14.5127741209        6.8545320568        0.4234867360
 H       -10.7051519249        8.0708182126       -3.8143038413
 H        -9.2469543400        8.5400579292       -4.5237048271
 H        -9.1815584945        7.3222204327       -3.0511307855
 H        -9.8314742856        5.4247721454       -6.6678341031
 H       -10.0203130711        7.2510201699       -6.5813129978
 H       -11.3671330356        6.3747128515       -6.1026597411
 H        -2.3262345036        8.4160794288       -7.0276607142
 H        -3.7922292185        8.5011204758       -6.1519767201
 H        -3.5797624539        9.3342328072       -7.7435853902
 H        -2.3383126966        7.0538458888       -9.4314766232
 H        -3.5926725051        8.3370357223       -9.5666959163
 H        -4.1510956345        6.7215943306      -10.0050674380
 Na      -10.8980384736        2.8373407379        2.1956788721
