117

 C       -13.8489253327        3.8493889296       -9.7197229478
 C       -12.4873249365        3.5624066561       -9.1023081812
 O       -11.7572845055        4.4569651366       -8.7232429920
 C       -11.9587526942        2.0882745704       -9.0026370648
 C       -11.2782386299        1.9073019169       -7.5141889265
 O       -11.7017332505        1.1227232347       -6.7191813759
 C       -10.1986423180        2.7953851329       -6.9866921893
 C        -9.1986733482        2.2441984341       -6.0152532603
 C        -9.5211080465        2.5302852676       -4.5071177330
 O       -10.5784769549        2.9521630312       -4.1314600286
 C        -8.2861895926        2.1767190999       -3.5250908202
 C        -7.9547078826        3.4724022513       -2.7654004211
 O        -6.8894854482        4.0560571658       -2.9706598496
 C        -9.0969457167        4.1010399378       -1.9791893819
 C        -8.7015852116        5.5443076290       -1.6069568243
 C        -8.3025674600        5.8262904603       -0.2045384337
 O        -8.4772818559        4.9448398671        0.6307389383
 C        -7.5748346764        7.1544985415        0.2958325075
 C        -8.6391338586        7.8418707166        1.2940926406
 O        -9.7874648369        7.5215700565        1.4792830752
 C        -8.1423758382        8.8959773955        2.3279801506
 C        -9.0305803354        8.8367027595        3.6497360000
 C        -9.1769384319        7.3291146860        4.0728235301
 O        -8.1808016722        6.5881507123        4.1036830730
 C       -10.5756010468        6.9325443860        4.6134572648
 C       -10.8117418135        5.3428408421        4.6880396999
 O       -10.1447984563        4.5658710391        4.0777755282
 C       -11.9473476394        4.8383116787        5.6959828803
 C       -12.0303543794        3.2315030453        5.6616364507
 C       -12.8404636103        2.8548129598        4.3865246237
 O       -13.3407569890        3.6356266777        3.5730256968
 C       -12.9245839224        1.3263084231        3.9897117511
 C       -11.4872814700        0.8473733996        3.5337919491
 O       -10.6317664254        0.7584459224        4.3099690232
 C       -11.2314664884        0.3158234229        2.0461071460
 C        -9.7275390400       -0.0333361076        1.8718268925
 C        -8.7985139033        1.1652788107        2.1338005834
 O        -9.2609947258        2.2711014754        2.3773554578
 C        -7.1491777659        0.9333461291        2.0789684726
 C        -6.7427747682        1.6037907861        3.4511088240
 O        -6.8275495298        2.8309695792        3.7175406876
 C        -6.1055414560        0.7079290608        4.5079637565
 C        -6.7953258524       -0.5827054232        1.9158541887
 C        -6.4734457072        1.7541508438        0.9619508279
 C       -13.2280981647        0.5003367275        5.2500965261
 C       -14.0709355176        1.0844648697        3.0009983588
 C       -10.4721831996        7.3540862522        6.0337524059
 C       -11.7689013936        7.6287259091        3.9468731223
 C        -6.2319601430        6.8048786195        0.9328508115
 C        -7.4192368332        8.1929131797       -0.7514378849
 C        -8.8682035654        1.1266802673       -2.5872514335
 C        -7.0451198873        1.6267060004       -4.1989400900
 C       -13.0470095956        0.9851429782       -9.1631603295
 C       -10.9780108797        1.9139311994      -10.2180581206
 H       -14.0889873667        4.8732291295       -9.4410771571
 H       -14.7421568313        3.2969526212       -9.2997484420
 H       -13.9966743402        3.7803493484      -10.8161710967
 H       -10.8793050400        3.6126445341       -6.5697630172
 H        -9.6853790044        3.2781266400       -7.8568888118
 H        -8.1519467685        2.5740683525       -6.2592978294
 H        -9.2879289856        1.1583196362       -6.0300150954
 H        -9.3643895224        3.5002522768       -1.1047116773
 H        -9.9978174990        4.1205278448       -2.5448504550
 H        -9.6169059210        6.1327670334       -1.6881393619
 H        -7.9436226204        5.8285835763       -2.3371288684
 H        -8.2036739754        9.8401314141        1.8418981408
 H        -7.0997733029        8.7540178880        2.7260362344
 H       -10.0449610466        9.1599451475        3.5522967361
 H        -8.5189817956        9.4040001388        4.4176289326
 H       -12.9091321193        5.2384729227        5.3425786746
 H       -11.8356906511        5.2747008481        6.7324718575
 H       -12.5768902527        2.8769824682        6.5285320142
 H       -11.0379672201        2.8142651256        5.6030530286
 H       -11.5148784005        1.0728001414        1.3003410170
 H       -11.9623696680       -0.5162841928        1.8078435681
 H        -9.4669098872       -0.3233612343        0.8795649692
 H        -9.4046471934       -0.8750476920        2.4374042764
 H        -5.4617875918        1.2834297716        5.1491154099
 H        -5.4120762594       -0.0809564861        4.0546717269
 H        -6.8427035072        0.3621300435        5.2481963893
 H        -7.3197729173       -0.9823027713        0.9931891608
 H        -7.2723399381       -1.1049576476        2.7711834783
 H        -5.7408743573       -0.7444565981        1.9778476660
 H        -6.6034963902        2.8382951133        1.1938295070
 H        -6.9740182586        1.4440818838        0.0700493721
 H        -5.3615744260        1.6462551090        0.9812792532
 H       -12.3453824224        0.4357726907        5.8271687357
 H       -13.6026931841       -0.5414596678        4.9713861195
 H       -13.9019895684        1.0879933706        5.9544060510
 H       -14.8398554439        1.8536442909        2.9400292576
 H       -14.5714007461        0.1490211204        3.2107219935
 H       -13.8742131218        1.0419701719        1.9154440069
 H       -10.2960924334        8.4226724962        6.0308791889
 H        -9.7005355488        6.7986746451        6.5714408061
 H       -11.4494590728        7.3400854491        6.5638190805
 H       -11.6763777146        7.6281613724        2.8150693381
 H       -11.8406988712        8.6707798785        4.2712721701
 H       -12.7186346291        7.1487466814        4.1369499831
 H        -5.6568775665        7.5829503558        1.4260842434
 H        -5.6912185803        6.5136844445        0.0577358642
 H        -6.2361327251        6.0471857899        1.7096698061
 H        -6.5760519885        7.9620002897       -1.3464019231
 H        -7.3189150033        9.1902590191       -0.4162511970
 H        -8.2817464525        8.3029679444       -1.3733783271
 H        -9.4444339969        0.3652209291       -3.0878928704
 H        -9.6142208123        1.6246768377       -1.9552070138
 H        -8.0238850101        0.6496680605       -2.0105860400
 H        -7.2129484639        0.8088281367       -4.8516315174
 H        -6.4120315495        1.1808971900       -3.4448499857
 H        -6.4863125927        2.4086941934       -4.6877900122
 H       -13.6236528689        0.6634513368       -8.2847627742
 H       -12.5418900361        0.1747125019       -9.6559309943
 H       -13.7650259260        1.3825188063       -9.7544757425
 H       -10.5403386068        2.8926490310      -10.3836000335
 H       -11.5949956181        1.6538493446      -11.0649811067
 H       -10.3072743749        1.1484032210       -9.9313282324
 Na       -8.1464255892        4.5753216306        2.8889852816
