117

 C        -2.7373825000        4.1452184189       -7.5745912277
 C        -2.7054404204        5.6455515267       -7.1983791659
 O        -2.1154071713        6.0758190937       -6.2023953095
 C        -3.6868320021        6.7119415239       -8.0057834758
 C        -5.2009198689        6.5470589749       -7.6928623566
 O        -6.0550336615        6.8196682784       -8.6165701014
 C        -5.7968503847        6.0728494190       -6.3492977993
 C        -7.3160082122        5.9978003744       -6.5999127792
 C        -8.0642930134        5.3281199649       -5.3651551483
 O        -7.8292247427        4.3532932254       -4.7287534128
 C        -9.4669252449        5.9661139895       -5.1048248778
 C       -10.3070057934        5.1660393594       -4.0644688601
 O       -11.1883412673        4.4271621001       -4.5229627606
 C        -9.9933152136        5.2674277673       -2.5944919430
 C       -11.0625591574        5.7730283981       -1.6469705359
 C       -11.3067563820        5.3693688697       -0.0709535280
 O       -10.4565846546        4.8558526645        0.5878917269
 C       -12.5040666086        6.1628473880        0.5651236204
 C       -12.7382347083        5.4573455081        1.9807606576
 O       -13.1733743583        4.2704772150        2.0144526943
 C       -12.6809724516        6.3108486602        3.3244704510
 C       -11.2178894161        6.3034940538        3.8329137389
 C       -10.8168203711        4.9450645066        4.6279199841
 O       -10.3602920555        4.1052780505        3.9302321742
 C       -11.0383066301        4.8042454047        6.0976071027
 C       -11.8215883711        3.3894218672        6.1830827564
 O       -12.9539954791        3.3444983555        6.2272494496
 C       -11.0025593112        2.1211069391        6.0114997687
 C       -11.9910228695        1.0001341248        5.7978309417
 C       -12.5694757471        0.8662271070        4.3889863377
 O       -12.1050291442        1.3293239622        3.4056943651
 C       -13.6378713772       -0.1833192627        4.1650065804
 C       -13.0678770398       -1.2373943410        3.0876575559
 O       -12.5179112899       -2.2097608358        3.5233002309
 C       -13.3356587081       -0.7689319467        1.5068490414
 C       -12.0695340822       -0.9016855362        0.6824740304
 C       -10.9751343171        0.1766049563        1.0086730459
 O       -11.1667377825        1.3311577436        0.6949424899
 C        -9.5643862331       -0.2914745049        1.4989612472
 C        -8.6575671965        0.7399820779        2.1968117622
 O        -9.1821891799        1.7018651653        2.7756588910
 C        -7.0708997001        0.6409210679        2.1184000937
 C        -9.6565012168       -1.5403525596        2.4769476751
 C        -8.8951101142       -0.8066020997        0.1405253929
 C       -14.0365506914       -1.0881621365        5.4569388316
 C       -15.0165341369        0.4801009811        3.5648741234
 C        -9.6793016771        4.4738985889        6.7789689070
 C       -11.7547509145        5.9752442330        6.7919157448
 C       -11.9565772483        7.6158462116        0.6028593564
 C       -13.8489035606        6.2110432984       -0.2138951090
 C        -9.1661804951        7.5019107252       -4.5251066419
 C       -10.3244186895        6.0320104688       -6.3745732987
 C        -3.4243447626        8.1410389559       -7.5149837421
 C        -3.5142070240        6.6186068573       -9.5523562061
 H        -3.4416601659        3.6395255109       -6.8318749245
 H        -1.7330426944        3.8222902017       -7.3023326546
 H        -3.1038491745        4.0008830564       -8.5315424102
 H        -5.6839245049        6.9177668348       -5.6797022776
 H        -5.3735526432        5.2538200513       -5.7210003736
 H        -7.4333159934        5.4099574470       -7.4650243626
 H        -7.7410009139        7.0487822577       -6.8072939789
 H        -9.1673779832        5.9174389904       -2.4239643294
 H        -9.6149337722        4.3010871597       -2.2270441181
 H       -12.0603950287        5.8063740246       -2.1026758346
 H       -10.9710134417        6.8389778600       -1.4587162824
 H       -13.5327727322        5.9400852961        3.8174449183
 H       -12.8096976453        7.2752987191        2.9420637007
 H       -11.0343182599        7.2099970052        4.4672729182
 H       -10.6321156029        6.3630403017        2.9436143026
 H       -10.2538839132        2.0344333626        6.8319553997
 H       -10.4291224667        2.1029951191        5.0626183085
 H       -12.8275390026        1.1041088306        6.4813391379
 H       -11.4690701470        0.0647373921        5.9202483166
 H       -13.9113104562        0.1970060607        1.5975914833
 H       -14.0920013568       -1.4455672526        0.9652014976
 H       -12.3574888490       -0.7668889263       -0.4171957515
 H       -11.5790862365       -1.8139860205        0.8175187550
 H        -6.6862069385        0.1402407219        3.0117515349
 H        -6.4170208924        1.4261909368        1.8387950797
 H        -6.9395172960       -0.1885387060        1.4376762414
 H       -10.4203924308       -1.1973708616        3.2634005392
 H        -8.6994515410       -1.8927375635        2.9298793520
 H       -10.0188984266       -2.4366100563        1.9200141320
 H        -9.4910999533       -1.5902753215       -0.3456699262
 H        -7.8992798625       -1.3985984826        0.4355989899
 H        -8.6968468651        0.0730246492       -0.4688299601
 H       -14.6887932205       -0.3786537951        6.0982954579
 H       -13.0952002601       -1.3870142060        6.0090926989
 H       -14.7340348438       -1.8767637313        5.1720388819
 H       -14.8842359327        0.8872124798        2.5872095046
 H       -15.4341395778        1.0606788668        4.3377300252
 H       -15.8482152678       -0.2584024790        3.5536840470
 H        -8.9134879092        4.2222259591        6.1226728429
 H        -9.9156020394        3.6076085921        7.4807610187
 H        -9.2969566456        5.3602601979        7.3328414095
 H       -11.7726790995        5.6976480402        7.7752019975
 H       -12.7523389152        6.0995513996        6.3014268953
 H       -11.2466128852        6.9628585634        6.8275343218
 H       -10.9497108760        7.7564500480        0.9788234581
 H       -12.5735122421        8.2268851656        1.2372597303
 H       -12.1541444447        8.1443249810       -0.3575391913
 H       -14.4447497414        5.2775900812       -0.3867797092
 H       -13.5820282439        6.5479726872       -1.2538478734
 H       -14.4666485395        6.9219785142        0.2163934190
 H       -10.1197465090        7.7910065401       -4.0181935397
 H        -8.7591783842        8.1832033557       -5.3192115643
 H        -8.4850627601        7.5089777655       -3.6653622856
 H       -10.6679219927        5.1632174202       -6.7342365594
 H        -9.8863032008        6.6324274133       -7.1632610599
 H       -11.2887938410        6.5375570334       -5.8504558070
 H        -2.4345561595        8.3566972323       -8.0224597995
 H        -3.3127745424        8.1386593857       -6.5253211833
 H        -4.1347995769        8.8496481054       -7.8558142777
 H        -2.5615454466        7.1217185169       -9.8279865303
 H        -4.3800429089        7.1444511572       -9.8363739178
 H        -3.4370936368        5.5464365903       -9.7573310828
 Na      -11.1366812036        3.0938537796        1.8675465510
