117

 C        -2.7124561290        3.8681820595       -7.0090407778
 C        -2.6671578928        5.4250274434       -7.0165597611
 O        -2.0123853085        6.0286831156       -6.2475234078
 C        -3.5431638639        6.2313721184       -8.0910542736
 C        -5.1648190062        5.9010230596       -8.1304736780
 O        -5.7402175000        6.2964646992       -9.0519316455
 C        -5.7772632343        5.3928196720       -6.8038811368
 C        -7.3573496979        5.2339071016       -6.9875879800
 C        -8.2064664151        4.7715097435       -5.5640553691
 O        -7.8511802020        3.7778150459       -4.9035742588
 C        -9.3423039874        5.7058084934       -5.0432478612
 C       -10.2221790696        5.0261523280       -3.8073611553
 O       -11.1931124865        4.3271615013       -3.9789074889
 C        -9.8555304390        5.4596032474       -2.3613556174
 C       -10.8283298261        6.3427757548       -1.5957630774
 C       -11.3618010116        5.6065499394       -0.2635910436
 O       -10.6745268005        4.8017455130        0.3528278241
 C       -12.5762463759        6.2779625728        0.4260858460
 C       -12.6659007470        5.7620605150        1.8009363268
 O       -12.6288081681        4.5782841090        1.9897933793
 C       -12.5234274779        6.6691912855        3.2004509112
 C       -11.1274801830        6.5704431719        3.9443489726
 C       -10.9461165291        5.1689946471        4.7265055211
 O       -10.4245062603        4.2064577188        4.1110973160
 C       -11.1372860759        4.9332335123        6.2750529983
 C       -11.7604633920        3.5514513474        6.4397898366
 O       -12.9888784735        3.4260598448        6.7777747649
 C       -10.9353997904        2.2978020300        6.3801156254
 C       -11.9057638590        1.0852979258        6.1569463421
 C       -12.6513566017        1.2629622946        4.8660531992
 O       -12.1731492918        2.1396571746        4.0833789677
 C       -13.7666602563        0.2895126818        4.3592503639
 C       -13.2766286431       -0.5699972185        3.2574761233
 O       -12.7157544620       -1.5745528295        3.6222096524
 C       -13.4230773677       -0.2112614984        1.7330998122
 C       -12.2775125283       -0.9706145021        1.0265239638
 C       -11.0256436981       -0.0958671384        0.6987557958
 O       -11.1598552947        1.0152712531        0.2561180228
 C        -9.5357085869       -0.6469226721        1.1007494799
 C        -8.9523212459        0.5822329912        1.8533643083
 O        -9.3500389661        1.7016979299        1.8731189908
 C        -7.6817835304        0.3264838475        2.7869181557
 C        -9.5283232843       -2.0134535243        1.6356987436
 C        -8.7396733484       -0.4895096113       -0.2262152491
 C       -14.3352721936       -0.5474905112        5.5402418607
 C       -14.8675483448        1.1502192255        3.8236388738
 C        -9.7882087321        5.1662473840        7.0246900243
 C       -12.0824618227        6.0349427994        6.8042715862
 C       -12.3997810569        7.8424193392        0.2172913967
 C       -13.8457782487        5.8412859577       -0.4486793291
 C        -8.8801540102        7.1517848283       -4.7884792483
 C       -10.3367669228        5.8769075332       -6.2386510981
 C        -3.3810365659        7.7100105009       -7.8601405368
 C        -2.7916475503        5.9181499691       -9.4055346244
 H        -1.7882629235        3.5722181900       -6.6679374635
 H        -2.9359999631        3.5666656332       -8.0327462774
 H        -3.5126609876        3.5193088815       -6.2822707453
 H        -5.5134773274        6.0356536121       -5.9430168720
 H        -5.3366525668        4.4495703423       -6.6319076276
 H        -7.4808274836        4.4270783036       -7.8233216594
 H        -7.6844752208        6.2085334966       -7.2689491548
 H        -8.8389079775        5.9066566649       -2.3186085260
 H        -9.9353768273        4.4920800754       -1.9488618597
 H       -11.6014582919        6.8505909463       -2.1264156706
 H       -10.2560923370        7.1523249470       -1.1732225061
 H       -13.3541371082        6.4684433889        3.8491903947
 H       -12.6735834728        7.6548044111        2.8861660507
 H       -11.1189075239        7.3786598979        4.6915672552
 H       -10.2830894762        6.7858220407        3.2639248824
 H       -10.4377680086        2.0557321696        7.3439072011
 H       -10.1395179849        2.4117708780        5.6010323208
 H       -12.5550303250        1.0526471448        7.0082261310
 H       -11.2763679120        0.2270320519        6.0175084966
 H       -13.4129163494        0.8883466999        1.6373561939
 H       -14.5012555686       -0.4862953558        1.5019986282
 H       -12.5138876724       -1.3905991372        0.1248184847
 H       -11.9670553386       -1.9242267958        1.5465509867
 H        -7.2422719425        1.2493805154        3.1466255792
 H        -6.8176895697       -0.0958323814        2.3289194013
 H        -7.8808646333       -0.4006776483        3.5435235760
 H       -10.0633893572       -2.1349847949        2.6160152072
 H        -8.4973184030       -2.4045666816        1.5958745434
 H       -10.2504969144       -2.6100269149        0.9796824965
 H        -8.9262180298       -1.3867244490       -0.9303581234
 H        -7.7137278305       -0.3801836899        0.0354230841
 H        -9.2844794619        0.2486464851       -0.8718533572
 H       -14.8237432647        0.2646042108        6.0657761574
 H       -13.6267757136       -1.2211152973        6.0349913998
 H       -14.9390081522       -1.4055041974        5.1093207628
 H       -14.5333157084        1.8469891468        3.0751024860
 H       -15.2504356600        1.8259915438        4.6105414776
 H       -15.6641874718        0.5449229916        3.4590281817
 H        -9.2142492711        4.1650131512        7.0848047464
 H        -9.9608942095        5.4627553622        8.0267879498
 H        -9.3274384838        6.0421810428        6.5854831928
 H       -12.7585806575        5.4307386417        7.4959100820
 H       -12.7855051540        6.4747973303        6.1807354896
 H       -11.4689099754        6.7819261461        7.2105685074
 H       -11.3764953671        8.2328577411        0.3248148812
 H       -12.9300383640        8.5824515143        0.8560517869
 H       -12.7001357307        8.1019831088       -0.7781032118
 H       -13.9444022484        4.8295806176       -0.3268250538
 H       -13.8412777435        6.1674687054       -1.4766842570
 H       -14.8430435086        6.2902981163       -0.1612851571
 H        -9.8430699725        7.6527403795       -4.7463754701
 H        -8.3550385298        7.4669732574       -5.7244991118
 H        -8.1301384962        7.4374891425       -3.9993384514
 H       -10.6058065483        4.7473975236       -6.5748132534
 H        -9.7236229001        6.1205635621       -7.1640447054
 H       -11.2726462591        6.3098690760       -6.1115733828
 H        -2.4355693208        7.7869391521       -7.5494338129
 H        -4.0177501165        7.8991827859       -6.9703063974
 H        -3.8047306125        8.3513090561       -8.5478106449
 H        -1.7491643003        5.6891389129       -9.1289385560
 H        -3.0130564760        6.7899605415      -10.0606257527
 H        -3.2850588486        5.0121690839       -9.7248590795
 Na      -11.0372125937        3.0431952302        1.9931473870
