117

 C        -2.8210787925        3.8183014931       -6.9215927185
 C        -2.8118109957        5.3380251450       -6.9062397881
 O        -2.1029041313        6.0172658196       -6.1457988984
 C        -3.5475287322        6.0834418563       -8.0783104046
 C        -5.1135051166        5.7458705468       -8.1479942514
 O        -5.8424860205        6.0623087153       -9.0699863910
 C        -5.8021506119        5.2155554945       -6.8053122564
 C        -7.3646300753        5.1884961242       -6.8999097032
 C        -8.0363227081        4.8793106262       -5.5565498782
 O        -7.7950102940        3.7634210823       -5.0441073521
 C        -9.3513969724        5.7001045031       -5.1033604040
 C       -10.1603217153        5.0853466697       -3.8041458312
 O       -11.0667155162        4.3611092570       -3.9756134360
 C        -9.6012873201        5.4086270500       -2.2582939393
 C       -10.6941854992        6.2629046951       -1.5399399369
 C       -11.3067027487        5.6667386448       -0.2452220286
 O       -10.7230395817        4.7264840492        0.2990257271
 C       -12.6578475310        6.3306171466        0.3264772779
 C       -12.6893529638        5.8463002322        1.8509029251
 O       -12.8458661468        4.7087760233        2.0682236730
 C       -12.5211035111        6.8737021834        3.0516766537
 C       -11.2054519364        6.4642788758        3.9383171623
 C       -10.8877341046        5.1684208826        4.6445556315
 O       -10.3829794460        4.2644956944        4.0521804379
 C       -11.1563048766        5.0624334101        6.2629630395
 C       -11.7536406666        3.5921569921        6.5664559615
 O       -12.9478198944        3.6611152935        6.8704483922
 C       -10.9686195391        2.2167719971        6.4130372028
 C       -11.9630779576        1.0943921667        6.1781762555
 C       -12.5345272828        1.3342411755        4.7873202664
 O       -12.2739875556        2.2166740000        3.9776769789
 C       -13.8463612540        0.4995978295        4.4482762115
 C       -13.1787174562       -0.6349412558        3.4235724224
 O       -12.5728877005       -1.6302195657        3.7514132638
 C       -13.2820585813       -0.2007839784        1.9549357328
 C       -12.3128785344       -0.8373459626        0.9626014408
 C       -11.0581922095       -0.0345938495        0.7195582303
 O       -11.0817738590        1.0994956943        0.1781349117
 C        -9.6250304534       -0.5954469585        0.9325496238
 C        -8.9405632089        0.5135019608        1.8816967888
 O        -9.1538056882        1.7127386336        1.8292762271
 C        -7.7959139895        0.0966180313        2.8777060115
 C        -9.5833062940       -2.0533361993        1.4146715894
 C        -8.6986020729       -0.4785981100       -0.4083483567
 C       -14.3994793841       -0.3122872144        5.7620538594
 C       -14.9301058147        1.4115098337        3.7574602134
 C        -9.8233067347        5.1489574033        7.1111170325
 C       -12.2678212660        6.0838424894        6.8031373871
 C       -12.4426812826        7.8664021248        0.1780949800
 C       -13.8902406488        5.8186871680       -0.5122942694
 C        -8.7582984170        7.1551055708       -4.8603668143
 C       -10.2621575719        5.6959693048       -6.3658377994
 C        -3.4836148889        7.6234108603       -7.7757347098
 C        -2.7769556431        5.7514933763       -9.4774502679
 H        -1.7506226400        3.5933964294       -7.0120290308
 H        -3.4923916055        3.4414680287       -7.6394873094
 H        -3.0471582630        3.5470232602       -5.9797259529
 H        -5.4929447832        5.8228085862       -5.9779297821
 H        -5.4970342201        4.2180692891       -6.6539564948
 H        -7.6987055600        4.3090705973       -7.5420062958
 H        -7.6955363393        6.1728102765       -7.2787850305
 H        -8.7952781121        6.1485892633       -2.4601763071
 H        -9.3129122424        4.4600529717       -1.7784909346
 H       -11.5421284809        6.4440634220       -2.1710019540
 H       -10.3034894778        7.2241490932       -1.3269724362
 H       -13.4427427850        6.8045032293        3.5651359173
 H       -12.5029689060        7.9208950479        2.7222889210
 H       -11.1228791181        7.1799375267        4.6969731350
 H       -10.3583487831        6.7332826621        3.2599464495
 H       -10.4233156962        1.9170084556        7.3077540174
 H       -10.2665531734        2.2878938891        5.5876945501
 H       -12.7935621265        1.2020518421        6.8533624073
 H       -11.3994692737        0.1695802255        6.2752533590
 H       -13.2763118506        0.8860400945        1.9310951042
 H       -14.2535172675       -0.4640428806        1.7948413736
 H       -12.7405725533       -0.9561415355       -0.0314692606
 H       -12.0337049351       -1.8463267808        1.1273530520
 H        -6.9911223463        0.7349242681        2.9929668850
 H        -7.3882003535       -0.7546091027        2.3324302575
 H        -8.1698253191       -0.4266684441        3.7266628385
 H        -9.9766225639       -2.1939547171        2.4358391624
 H        -8.5852149514       -2.2680147784        1.3998714249
 H       -10.2180098449       -2.7844382941        0.8414134995
 H        -9.0254039642       -1.4312161198       -0.9649333600
 H        -7.6550364860       -0.5788663669       -0.0722772539
 H        -8.9492887089        0.1953434174       -1.1249341254
 H       -14.8955681784        0.4677557272        6.3552189702
 H       -13.6148307419       -0.8889642461        6.2052620227
 H       -14.9607911256       -1.2661260047        5.4442436336
 H       -14.6471222052        2.1821550806        3.1025932584
 H       -15.2978537510        2.0674923338        4.4743009473
 H       -15.7203034570        0.7596651042        3.3032498540
 H        -9.1558778902        4.3306482754        6.7952258200
 H       -10.0856185968        4.8792894397        8.1312392993
 H        -9.4739895377        6.1831726844        7.2625304594
 H       -12.8367958446        5.4730254101        7.5025934743
 H       -13.0899070286        6.4191022616        6.1936544906
 H       -11.6830220635        6.9216638928        7.1910806258
 H       -11.4509322018        8.1540149543        0.5423943168
 H       -13.0744657433        8.5111348589        0.7868483343
 H       -12.4710069514        8.2902673123       -0.8291209553
 H       -14.3463038280        4.9984070048        0.0926896683
 H       -13.7574470316        5.5448549509       -1.5068579101
 H       -14.6597894753        6.5868751692       -0.6086711682
 H        -9.6853375108        7.6429717542       -4.5382995396
 H        -8.3572430133        7.6442162407       -5.7330825047
 H        -7.9397700348        7.2157494662       -4.0434703292
 H       -10.5968469608        4.7850197021       -6.7647062371
 H        -9.6563650918        6.0891481539       -7.2174243384
 H       -11.3046236675        6.3287852729       -6.1810018478
 H        -2.3739191370        7.9281916050       -7.5665638453
 H        -3.9802271553        7.7528888109       -6.8583674170
 H        -4.1223113216        8.2146708511       -8.4422883368
 H        -1.7593594277        5.9775616587       -9.2448912669
 H        -3.3006526332        6.4096925640      -10.2198366403
 H        -2.9731138320        4.6665581365       -9.6546336584
 Na      -10.9962018495        2.9222492655        1.9814921250
