117

 C        -2.2252739836        3.5088571264       -6.6919684515
 C        -2.9420174624        4.8183009975       -6.6508178530
 O        -3.1407483237        5.4079089713       -5.6202368011
 C        -3.7128546751        5.3431200888       -7.9811183478
 C        -5.1414468687        4.5867902954       -8.1131450195
 O        -5.5273689252        4.1981031600       -9.1473712341
 C        -5.8959175343        4.5208475239       -6.7873040245
 C        -7.3928994633        5.0109105028       -6.7593046439
 C        -8.0710639630        4.8376848503       -5.2364600804
 O        -7.6012475839        4.0068593936       -4.4496441002
 C        -9.3133287618        5.8222234480       -4.8929270040
 C        -9.9284030977        5.0260443642       -3.6213620768
 O       -10.7799341265        4.1681130287       -3.6888617543
 C        -9.2496284940        5.2441000184       -2.3221793290
 C       -10.1485887711        6.2657120766       -1.5518907959
 C       -10.9300874514        5.5260658191       -0.4035483604
 O       -10.3956849413        4.6497650686        0.2366387132
 C       -12.3275648886        6.2009304635        0.1777975351
 C       -12.4471774261        5.8938976165        1.7188115567
 O       -12.8571108651        4.7447346810        2.0969830835
 C       -12.3250242967        6.9525196736        2.8962607842
 C       -11.0376350112        6.8301007662        3.6211864581
 C       -10.9512762586        5.5221575668        4.4073523012
 O       -10.5842552006        4.3886171500        4.0463545367
 C       -11.2003044498        5.6678620033        5.9815411247
 C       -11.8346975579        4.3174856220        6.4261521810
 O       -13.0485384078        4.2051969086        6.7604838998
 C       -10.9868703261        2.9859740880        6.3701753877
 C       -12.0497413326        1.8917700811        6.1746023164
 C       -12.7233005441        1.9283851400        4.8065740627
 O       -12.1995387626        2.4258243224        3.7959125176
 C       -13.9129971961        0.8528091248        4.5003688922
 C       -13.4261348085       -0.2113712168        3.4357987519
 O       -12.7833465483       -1.1076185417        3.9035552023
 C       -13.4921423908       -0.1070436939        1.9554727875
 C       -12.4563137735       -0.8618921953        1.0939079210
 C       -11.1181532100        0.0301780594        0.9211712902
 O       -11.2152342795        1.1792943193        1.2176630730
 C        -9.6887488728       -0.4837360027        0.5227419672
 C        -8.7278775744       -0.0261967447        1.7543634270
 O        -8.5789535772        1.0908036979        2.1957766640
 C        -8.2086076999       -1.1809237018        2.6424834133
 C        -9.6334804043       -1.9891800629        0.2325286351
 C        -9.1700319908        0.3402501875       -0.7586951500
 C       -14.3299495209        0.0936110156        5.7404831321
 C       -15.0582381914        1.8532383246        4.1232470370
 C        -9.8839737419        6.0611586983        6.7064742612
 C       -12.2645821693        6.8441780977        6.1444098829
 C       -12.4995373789        7.7164903999       -0.0622793396
 C       -13.5904712410        5.5034846090       -0.5701699628
 C        -8.8783105385        7.3181868709       -4.6702897061
 C       -10.3478966203        5.7728229445       -6.0895698632
 C        -4.0276781487        6.9017763249       -7.8969222259
 C        -2.8009002025        5.0445725365       -9.3188633184
 H        -2.5265103780        3.0486067668       -7.6395490691
 H        -2.4248370391        3.0528652848       -5.6989345562
 H        -1.1455251026        3.6465280489       -6.8001705093
 H        -5.3119946083        5.1640101312       -6.0811434567
 H        -5.8946282455        3.4587580222       -6.4394589962
 H        -8.0021707227        4.3904600106       -7.4336391200
 H        -7.4393268725        6.0488497249       -7.0508793400
 H        -8.2095625384        5.5574983630       -2.5216769552
 H        -9.2968508853        4.2820890448       -1.7682829982
 H       -10.8117451493        6.8861313511       -2.1602032704
 H        -9.3992963421        6.7833519924       -0.9422414660
 H       -13.1289698831        6.6505565663        3.6534041828
 H       -12.4545326202        8.0403481716        2.6360661914
 H       -10.7862677843        7.7516865187        4.1852524616
 H       -10.3742418466        6.8191488545        2.7761759657
 H       -10.5063924636        2.9191511393        7.3376663837
 H       -10.2291409647        2.9636965347        5.6030877174
 H       -12.7180167572        1.9563326648        7.0727432789
 H       -11.6606437474        0.8381503844        6.1213744601
 H       -13.3498009610        0.9109251081        1.7118369968
 H       -14.5025323475       -0.4552322554        1.6412408268
 H       -12.9329164308       -1.1349090164        0.1509857042
 H       -12.1567465975       -1.8747027363        1.5613214713
 H        -7.8695019605       -0.9315036049        3.6449920836
 H        -7.4236872385       -1.8815206908        2.2002180151
 H        -9.0315337579       -1.9078364425        2.8284554581
 H       -10.0015665638       -2.5378857166        1.0346405931
 H        -8.7224958252       -2.3374203205       -0.0377535457
 H       -10.1552635134       -2.1069336045       -0.7124206684
 H        -9.4925577564       -0.1382168805       -1.7757950009
 H        -8.1345144224        0.3853255562       -0.8986756979
 H        -9.4076677766        1.3514488092       -0.5899373058
 H       -14.9334081461        0.6729878425        6.3676830077
 H       -13.4305998713       -0.2071640352        6.1983908525
 H       -15.0499395548       -0.6858462535        5.3312428621
 H       -14.8113124308        2.5617069592        3.2586583042
 H       -15.2509006302        2.4875918722        5.0568544545
 H       -16.1097697671        1.5974508305        3.7844358073
 H        -9.2997265069        5.0989597494        6.9340759631
 H       -10.0542782112        6.6420297526        7.5616848658
 H        -9.2432405121        6.5551354448        5.9742417487
 H       -12.9167635386        6.7825222400        7.1338516898
 H       -12.9277449273        6.7568843545        5.2939278913
 H       -11.7388131520        7.8262015825        6.1833277036
 H       -11.9003115367        8.3672631940        0.5963693455
 H       -13.5593441228        7.9821774280        0.1734480503
 H       -12.3826783627        8.1204050319       -1.0642098954
 H       -13.8756874927        5.9737888731       -1.4920550440
 H       -14.4245810788        5.4406486631        0.1153947065
 H       -13.2602865750        4.4633682981       -0.9978384740
 H        -9.5336495929        8.0676231974       -4.2374796927
 H        -8.8174458712        7.5086734862       -5.7744830470
 H        -7.9055961825        7.3812062722       -4.1832761679
 H       -10.5294996157        4.7940455878       -6.1056130996
 H       -10.1425539982        6.1821899973       -7.0068309065
 H       -11.2913619804        6.3721772650       -6.0100872216
 H        -3.1463735634        7.5444342380       -7.5975757967
 H        -4.7564414542        7.0369961761       -7.0681537901
 H        -4.2884666120        7.2713790878       -8.9530519928
 H        -1.8273728128        5.3206921938       -8.9097243804
 H        -3.0685592607        5.7807246806      -10.1142278832
 H        -3.0622909478        4.0527953131       -9.6468882739
 Na      -10.9571193556        3.2240682960        1.9305691232
