117

 C        -1.7675889030        3.5933970720       -6.6077648743
 C        -2.9603980363        4.5170546158       -6.5630084278
 O        -3.3288840927        4.9905633675       -5.5479687604
 C        -3.8222085022        4.8934311315       -7.8722718540
 C        -5.2029734360        4.0216786645       -7.9157512179
 O        -5.5275048710        3.2818807536       -8.7671562923
 C        -5.9637458924        4.1505835881       -6.5626946303
 C        -7.4152924041        4.7867363740       -6.7069652645
 C        -8.0395753763        4.7820314964       -5.2457306283
 O        -7.2557540065        4.5655649876       -4.4137149894
 C        -9.3724983290        5.7218661426       -4.9295955780
 C       -10.0987370577        5.0962689022       -3.6264429070
 O       -11.0881646212        4.3411750605       -3.5195691586
 C        -9.3142275630        5.2996583273       -2.2707065518
 C        -9.9128389241        6.3644311510       -1.3144303960
 C       -10.7833295062        5.7084278800       -0.2387947469
 O       -10.2781878496        4.8422450808        0.4439610316
 C       -12.2867161896        6.2085636644       -0.1106553505
 C       -12.5808398509        6.0839519727        1.4135522491
 O       -12.6265517782        4.9041282015        1.9209686293
 C       -12.4377560837        7.1746118084        2.5322256712
 C       -11.0267871471        7.1501664786        3.1777725927
 C       -10.6191373665        6.0502830525        4.2736057603
 O        -9.7856308348        5.1907335182        4.0028073979
 C       -11.1396395915        6.0460456522        5.8146105372
 C       -11.9351602212        4.7061076154        6.2308108213
 O       -13.1349752225        4.6997406506        6.5814041674
 C       -11.2061862947        3.4223975272        6.5307686277
 C       -12.0755710171        2.1010431227        6.1808492350
 C       -12.6472870215        1.8967969977        4.7954394865
 O       -12.2916143348        2.5249444061        3.8039950194
 C       -13.8860429148        0.8689082168        4.5451999410
 C       -13.3598402487       -0.4779137940        3.5036595785
 O       -12.8429539069       -1.5143270088        3.8574417870
 C       -13.7140849646       -0.2318033630        1.9625474207
 C       -12.5525290633       -0.9025208611        1.1909986775
 C       -11.4010331158        0.0796764677        1.1414500821
 O       -11.5659157002        1.2093336132        1.4262033300
 C        -9.9730083686       -0.3313205143        0.4341249428
 C        -9.0061798635       -0.2790740082        1.7426005160
 O        -8.8345609374        0.7539262820        2.3767450068
 C        -8.2836802896       -1.4688093440        2.2696520688
 C       -10.0506205504       -1.7716095828       -0.2096559450
 C        -9.5157685303        0.9447178463       -0.3744155143
 C       -14.4360125740        0.1392068003        5.8816724974
 C       -14.9970757012        1.6616848088        3.7831158716
 C        -9.9092030837        5.8561758319        6.6725897702
 C       -11.9252294454        7.2535270993        6.0233076208
 C       -12.4440757361        7.6392473249       -0.5124538441
 C       -13.0046628914        5.2861935385       -1.1752715298
 C        -8.8322743728        7.1055718985       -4.5770034304
 C       -10.3384217931        5.4987776961       -6.0739965614
 C        -4.1652661179        6.4873759726       -7.6946091600
 C        -3.1158714975        4.5975286492       -9.3269492626
 H        -2.0552615536        2.6338528235       -6.8560297278
 H        -1.0704588010        3.7097311783       -5.8185032034
 H        -1.3268115344        3.9552345719       -7.5492019631
 H        -5.3622496990        4.6034683156       -5.8594390526
 H        -6.1633106576        3.1317714102       -6.2890973260
 H        -7.9970531267        4.1065384496       -7.2916887489
 H        -7.5817912047        5.8592775175       -7.1497503936
 H        -8.3625082330        5.7211049773       -2.5501165933
 H        -8.9711206441        4.3212655908       -1.8510728186
 H       -10.4794369501        7.0128320199       -1.9355244627
 H        -9.1061840152        6.8383655620       -0.7968858103
 H       -13.1317821743        7.0589838116        3.3567225197
 H       -12.4764499670        8.1070295022        2.0626122595
 H       -10.9807878131        8.1305568346        3.6770264806
 H       -10.4368153677        7.2535085984        2.3425720643
 H       -11.0043146128        3.3552875002        7.6267700254
 H       -10.2278768920        3.3988144990        6.0337617686
 H       -12.9177454656        2.0289892150        6.8610929777
 H       -11.4643494982        1.3000798192        6.5553451010
 H       -13.7688079589        0.7194107828        1.6826935226
 H       -14.6324218967       -0.7986718813        1.7911192296
 H       -12.8074595011       -1.2612263124        0.1603893469
 H       -12.2924911965       -1.7805728443        1.7416713033
 H        -7.9165381421       -1.2556171511        3.2246082285
 H        -7.4468283562       -1.6894973352        1.6479387314
 H        -8.6803062216       -2.4072841873        2.4509491083
 H       -10.3889046801       -2.5515530184        0.5355079750
 H        -9.1077441335       -2.0180548673       -0.7171586770
 H       -10.6555589061       -1.8442269096       -1.1784299339
 H       -10.0541083553        1.0062408692       -1.3706364486
 H        -8.5903219451        0.9238111334       -0.7687673759
 H        -9.4815762977        1.8228133873        0.2760177212
 H       -14.7064595271        0.9110871921        6.6220977088
 H       -13.7033771157       -0.5225395615        6.3722654925
 H       -15.4815200069       -0.0665937088        5.5192811616
 H       -14.5132065877        2.1246537742        2.9668791995
 H       -15.5515921523        2.3085048502        4.4244039803
 H       -15.8235086981        1.2292474231        3.3710566187
 H       -10.2302854472        5.8174832272        7.7427540539
 H        -9.4508092216        6.8346839061        6.6699302527
 H        -9.2820068479        5.0101252338        6.4646944310
 H       -11.6653355219        7.6810782175        7.0005647923
 H       -12.9176713975        6.9625472839        5.8076497847
 H       -11.6889370834        8.1126928872        5.4742845895
 H       -11.6323768470        8.3172219510       -0.3018545223
 H       -13.3667348197        8.0685928960       -0.1801213317
 H       -12.7525947348        7.6112909256       -1.5469896268
 H       -12.3350796865        4.7080421685       -1.6804042299
 H       -13.5640702359        5.9276590661       -1.8311439776
 H       -13.6626890467        4.4983311086       -0.6959251561
 H        -9.8387346749        7.5599392046       -4.4633282945
 H        -8.2577405181        7.7016711575       -5.3577285788
 H        -8.3308520492        7.2182231648       -3.6703133431
 H       -10.6313416809        4.4722917338       -6.0106540663
 H       -10.2474833578        5.9517651798       -7.1213865667
 H       -11.3269674680        5.9801494019       -5.8569485943
 H        -3.3818254639        7.0994623206       -8.0579907998
 H        -4.3842761799        6.7067781766       -6.6459011719
 H        -4.9702418775        6.6931812117       -8.3778438894
 H        -2.2373397738        5.2916794343       -9.2684010937
 H        -3.7399003711        4.9737255879      -10.1186930593
 H        -2.9786870636        3.5289631552       -9.3816151472
 Na      -10.4279357664        3.2090495331        2.4900272363
