117

 C        -1.5540471416        3.5883119312       -6.8307226228
 C        -2.9826605455        4.3401485365       -6.6166959246
 O        -3.3835769948        4.6321471716       -5.4743902377
 C        -3.8727889031        4.6849570486       -7.8924014995
 C        -5.1638101800        3.7072369623       -7.6775116443
 O        -5.4993532719        2.9194208042       -8.5696331199
 C        -6.0415331846        3.9120038637       -6.3232773506
 C        -7.3655444110        4.5210683571       -6.4178656615
 C        -7.9119712289        4.8385198747       -5.0436818995
 O        -7.2392831364        4.7004308678       -4.0195072458
 C        -9.3221794545        5.5373322230       -4.9634097200
 C        -9.9433377908        5.1461542723       -3.4691235058
 O       -11.0470644108        4.6500873871       -3.5288929883
 C        -9.1659927439        5.1841428195       -2.2516557865
 C        -9.7078446924        6.2813786325       -1.3668545184
 C       -10.5446472663        5.7616722904       -0.2186117035
 O       -10.0507510485        4.9195376673        0.5157889866
 C       -12.0271910271        6.1513175766        0.0048227798
 C       -12.3936079145        5.8164826867        1.5006944893
 O       -12.5231653979        4.7187503804        1.8129058383
 C       -12.4060971066        7.0387978695        2.3380506270
 C       -10.9551454912        7.1901488417        3.1524991429
 C       -10.6258929463        6.0826131429        4.1635118596
 O        -9.8115654606        5.2714333388        3.7768463910
 C       -11.0039035289        6.1640607176        5.6325489165
 C       -12.0173115405        4.8661657553        5.9751254698
 O       -13.1786340120        5.0651130612        6.0308620998
 C       -11.3770470585        3.4903840336        5.9971104911
 C       -12.3872865654        2.2954091256        6.1020327885
 C       -12.7029979298        1.8404499016        4.6640387669
 O       -12.1734624499        2.4179559933        3.7673635272
 C       -13.8442383684        0.8470573264        4.4202158892
 C       -13.3103219911       -0.3614350294        3.6047946687
 O       -12.8230159649       -1.2458441791        4.2868487293
 C       -13.7997194709       -0.5469549870        2.1163019759
 C       -12.5203269718       -0.8306549793        1.2905091033
 C       -11.5202113987        0.3130020248        1.2038960190
 O       -11.7452117962        1.4606318105        1.6215973821
 C       -10.1443936388       -0.0310661936        0.4973799970
 C        -9.2941370699       -0.1544121127        1.7940568838
 O        -9.1639526991        0.7112483105        2.6440580907
 C        -8.4845897071       -1.3678963893        1.9399095022
 C       -10.2191017382       -1.4484388197       -0.3532329924
 C        -9.6254589235        1.0616302425       -0.4508040374
 C       -14.3272981100        0.1566011004        5.8000602235
 C       -15.0458455572        1.6700880608        3.8484495215
 C        -9.7032444340        6.2715047153        6.5187453062
 C       -11.9022289083        7.3446288078        6.0578729455
 C       -12.2990434880        7.5539203980       -0.5189933399
 C       -12.9307913872        5.1611671552       -0.8374928126
 C        -9.1641738713        7.2431168829       -4.7992244790
 C       -10.2881662803        5.3607070548       -6.1187607770
 C        -4.4538822836        6.1445778113       -7.8139550235
 C        -3.1966379731        4.3813766338       -9.2113111904
 H        -1.7539699706        2.4912098195       -6.8045382341
 H        -0.9956010453        3.8172305304       -5.9157521341
 H        -0.8817610815        3.9362317222       -7.6789420574
 H        -5.3831170696        4.3539634561       -5.4894856290
 H        -6.1423585667        2.8308882034       -6.0262709342
 H        -8.1127654991        3.9475989484       -7.0425582785
 H        -7.3840872259        5.4748174084       -6.8189897852
 H        -8.0842251766        5.2020830443       -2.4348044289
 H        -9.2189879773        4.2144067954       -1.7737591309
 H       -10.2508029295        7.0581074112       -1.9350215311
 H        -8.8816275595        6.7541113948       -0.8017484566
 H       -13.0219233062        6.7564852090        3.2032180009
 H       -12.7422639366        7.9878790043        1.7804369093
 H       -10.9256430851        8.2039106805        3.5063684927
 H       -10.2001997954        7.0533685553        2.2961622879
 H       -10.5655404023        3.4405671556        6.6939105976
 H       -10.8737826405        3.4173717942        5.0374680249
 H       -13.2940012317        2.5124581548        6.7001481778
 H       -11.9410304679        1.4847817739        6.7515552955
 H       -14.1776052256        0.5074949090        1.7672626128
 H       -14.5431758628       -1.3272302575        1.9800198611
 H       -12.7752949666       -1.1438132013        0.2726324938
 H       -12.1420074454       -1.7501931845        1.8344971528
 H        -7.8583691331       -1.4517780601        2.8626848007
 H        -7.9457906887       -1.6852965782        1.0564574782
 H        -9.0882128658       -2.2562780727        2.2187158731
 H       -10.5950692989       -2.3183912976        0.0809114390
 H        -9.2481223299       -1.5947018389       -0.8814975454
 H       -10.8689465646       -1.3360446901       -1.1472596044
 H       -10.3497378248        1.6245062898       -0.8841853102
 H        -9.1448301524        0.6885820463       -1.4018866962
 H        -8.8731448558        1.7604094955        0.0175693011
 H       -14.7921279404        0.7970883297        6.5604517557
 H       -13.3669367394       -0.1811202488        6.1964333819
 H       -14.9898510721       -0.5612995583        5.5031435996
 H       -14.8128355384        2.4721620696        3.1137049028
 H       -15.9085404512        1.8126199331        4.5054661398
 H       -15.7037946537        1.0446946824        3.1781176942
 H        -9.9020434667        6.8251943641        7.3941728632
 H        -8.9390505496        6.9272079359        6.0222309430
 H        -9.2980557122        5.2839395134        6.8264112999
 H       -11.8932423546        7.3556334280        7.1041552608
 H       -12.8710031425        7.4434720216        5.4836326940
 H       -11.3236253118        8.2951802705        5.9175814790
 H       -11.7589010671        8.2642984383        0.0922458394
 H       -13.3538809498        7.8142056068       -0.5960911984
 H       -11.9941331191        7.6085460588       -1.5689353099
 H       -12.2867463223        4.4186225283       -1.4423729744
 H       -13.4068134940        5.8550872410       -1.5586896314
 H       -13.6087919092        4.5909706325       -0.2883370556
 H       -10.1218763649        7.7638714695       -4.5742732841
 H        -8.8061751746        7.6926776291       -5.7218554136
 H        -8.2832304054        7.4676912874       -4.1006778063
 H       -10.6072182538        4.2696407614       -6.4483917516
 H        -9.9176384265        5.7598602887       -7.0219642929
 H       -11.2683585111        5.6916946036       -5.9212892235
 H        -3.6647756441        6.8687451188       -8.0321352240
 H        -4.8569348982        6.2688676385       -6.7384567473
 H        -5.2768097787        6.3296993684       -8.5921645086
 H        -2.8349614643        5.2735291836       -9.7164465910
 H        -4.0101502737        3.9016241084       -9.7788523516
 H        -2.4182241479        3.6076991499       -8.9663437088
 Na      -10.3175813412        3.2915942321        2.5702671582
