117

 C        -1.6471352221        3.6948840846       -6.8939917178
 C        -2.9126931961        4.2780696002       -6.5900725367
 O        -3.2562625894        4.4829888345       -5.4826307443
 C        -3.9737395923        4.4978733579       -7.8168653347
 C        -5.2126995113        3.5527067851       -7.5697325558
 O        -5.5472013637        2.7877253116       -8.3870204799
 C        -5.9385710326        3.6328751518       -6.2068245435
 C        -7.2457941704        4.3781285235       -6.4546767731
 C        -7.7882296010        4.9586086562       -5.0935944150
 O        -7.1511510820        4.6763539925       -4.1501729795
 C        -9.2737249415        5.6957305807       -4.9320586548
 C        -9.9643546709        5.1362544320       -3.5209888443
 O       -11.1305725595        4.7618078907       -3.5410104466
 C        -9.1508691872        5.1693701073       -2.1982613424
 C        -9.5796609672        6.2670725162       -1.2402387546
 C       -10.4085805034        5.6653373131       -0.1708717803
 O        -9.8821960738        4.8423421452        0.6360503250
 C       -11.9741051746        6.0877634402        0.0015628428
 C       -12.2994924095        5.7843103379        1.5873644907
 O       -12.4188381979        4.6010983652        1.7763401413
 C       -12.3697248617        6.8956810700        2.6292425547
 C       -10.9075061526        7.2739471482        3.1607201150
 C       -10.4945444320        6.1702510852        4.0778991636
 O        -9.9755733755        5.1263842508        3.7614065645
 C       -11.0157265985        6.2452635892        5.6328559860
 C       -11.9383728768        5.0479760480        5.7149077705
 O       -13.2134926790        5.1604741154        5.7681219597
 C       -11.2898436579        3.6653890677        5.8920061014
 C       -12.3905109797        2.5675299397        6.0577897849
 C       -12.8539396973        1.9991090640        4.6972676388
 O       -12.1390343731        2.2785518941        3.7596634452
 C       -13.9805734143        0.8453765427        4.5791789988
 C       -13.4774773605       -0.3242138219        3.7715049752
 O       -12.6528165852       -1.1422538134        4.1774301635
 C       -13.8261259760       -0.5677897562        2.2989093285
 C       -12.5330620653       -0.7429220898        1.3393624270
 C       -11.6480660973        0.4202838509        1.0185971631
 O       -11.8383985563        1.5180354365        1.4816954248
 C       -10.2364718006        0.1202461352        0.4656294447
 C        -9.2831506735       -0.0790587496        1.7578254045
 O        -9.3672234723        0.7609421745        2.5734899471
 C        -8.4595857559       -1.4048816870        1.9081644596
 C       -10.1967036419       -1.2452942044       -0.3274363792
 C        -9.6879684681        1.3185751097       -0.3692297747
 C       -14.3893751867        0.2489532855        5.9467601063
 C       -15.1820453591        1.6242020608        3.8050265900
 C        -9.6553400277        6.3362710547        6.3317907717
 C       -11.9188595494        7.4485965727        5.9986415521
 C       -12.2808343611        7.5548340317       -0.4493266267
 C       -12.9045260344        5.0040825019       -0.7793284266
 C        -9.1949967123        7.2512120292       -4.8143128352
 C       -10.1916282680        5.1675354037       -5.9477557693
 C        -4.5298934703        6.0361538722       -7.8127303179
 C        -3.3122301277        4.1822872791       -9.2082276510
 H        -1.8742627738        2.6817817138       -7.1692838908
 H        -1.0281179946        3.6452286141       -5.9211861190
 H        -1.0278357486        4.3141635615       -7.6838102909
 H        -5.2329179309        4.0002378069       -5.4162310362
 H        -6.0079811187        2.5070108083       -6.0177344916
 H        -7.9130529457        3.6925506630       -6.9208921032
 H        -7.2072608080        5.2206051591       -7.1916829115
 H        -8.1067182542        5.1078281810       -2.3615456907
 H        -9.2353706597        4.2034775136       -1.6832002791
 H       -10.3302715275        6.9710742284       -1.7257559651
 H        -8.7443578817        6.8849067673       -0.7705810471
 H       -12.8716803571        6.6138000644        3.5624292821
 H       -12.7638013509        7.8041700568        2.1355991728
 H       -11.2172793525        8.2099126116        3.7286273653
 H       -10.2819724311        7.5700276635        2.2759891090
 H       -10.5913267418        3.7568839931        6.7458548391
 H       -10.6523489435        3.3997579851        5.0438786580
 H       -13.2130019133        3.0064858746        6.6509077146
 H       -12.1497362903        1.7032831811        6.7029311431
 H       -14.4821434046        0.1713292686        1.8190906066
 H       -14.3348492533       -1.6482404540        2.2379239303
 H       -12.9930842389       -1.2069476387        0.3854176743
 H       -12.0059265207       -1.5341218910        1.7831599274
 H        -7.7588582864       -1.3738248804        2.7902360283
 H        -7.8902363156       -1.8157288445        1.0209484453
 H        -8.9416175294       -2.3270152420        2.3444071938
 H       -10.5849830559       -2.0956481122        0.2635671020
 H        -9.1087653295       -1.3877034571       -0.6085446874
 H       -10.8718804414       -1.4510355785       -1.1450472973
 H       -10.5059063068        1.9808181097       -0.7836606788
 H        -9.1405044824        1.1126604474       -1.2322085933
 H        -9.0303514634        2.0421195950        0.2493310222
 H       -14.8137449731        0.9606816855        6.6139293712
 H       -13.4184798881       -0.0450540350        6.3513979573
 H       -14.9679618076       -0.6229925156        5.7119692003
 H       -14.9084506821        1.9571875057        2.7657512038
 H       -15.9445703267        2.2731222232        4.3107469876
 H       -15.9338143624        0.9419703959        3.5499481522
 H        -9.6420791718        6.7274147613        7.3157609000
 H        -9.0471932314        7.0740633551        5.7304656796
 H        -9.1741634128        5.3789220718        6.3206522548
 H       -12.5171864974        7.1908816684        6.8647642283
 H       -12.4909712000        7.7088177884        5.0672902224
 H       -11.3888426441        8.3446178103        6.3227916369
 H       -11.5849961438        8.1661554499        0.1391978549
 H       -13.2958620686        7.8364549064       -0.1476148986
 H       -12.2229564445        7.7845590089       -1.5685205209
 H       -12.2691756279        4.3509485034       -1.3445515934
 H       -13.5608529786        5.5650763018       -1.5081062156
 H       -13.5041323848        4.3711085077       -0.0809187485
 H       -10.2056143766        7.6774699633       -4.6328051696
 H        -8.7998398033        7.7357913968       -5.7196746803
 H        -8.4471964997        7.4907426196       -4.1610820115
 H       -10.0879177497        4.0567336865       -5.9134197115
 H        -9.7029629867        5.2929012170       -7.0236466055
 H       -11.2786730102        5.1105732518       -5.9481424791
 H        -3.6773940068        6.6013658513       -7.8556027274
 H        -5.1342842369        6.3038888704       -6.8774112803
 H        -5.1034240700        6.2459979255       -8.7066075464
 H        -2.8639365689        5.1447700131       -9.6562097327
 H        -4.1417300844        3.8533195088       -9.7706848618
 H        -2.5539931175        3.3909513429       -9.0699450654
 Na      -10.3677923723        3.2498953220        2.3761614777
