117

 C        -1.5064444503        3.7169582694       -7.0486472704
 C        -2.8995378027        4.1931913260       -6.5886806757
 O        -3.2598045799        4.4798659715       -5.4696677284
 C        -4.0240464119        4.3399206003       -7.7456719153
 C        -5.2080905767        3.3149251585       -7.4186778078
 O        -5.5719382417        2.5830065039       -8.3362160370
 C        -5.9987545292        3.4194220803       -6.1336725507
 C        -7.2953123764        4.3165369515       -6.4902002913
 C        -7.7475460425        5.0090544706       -5.0251576371
 O        -6.9969900805        4.7924644067       -4.0520274508
 C        -9.1551492643        5.5783545440       -4.8954402345
 C        -9.8874229075        5.1559296817       -3.5717684726
 O       -11.0993524803        4.9172919433       -3.5187899222
 C        -9.1151583402        5.1727508287       -2.1857936043
 C        -9.5438887620        6.2607892677       -1.1604398007
 C       -10.3950736958        5.6261649531       -0.0100754424
 O        -9.8013868218        4.8183089430        0.6513912072
 C       -11.9218474326        5.9287891360        0.0903661258
 C       -12.2116262466        5.6790571775        1.5520361875
 O       -12.3160237316        4.5347949455        2.0733991817
 C       -12.3496887496        6.8152308654        2.7188860334
 C       -10.9296955862        7.2914007677        3.1018750766
 C       -10.6318554489        6.2223037858        4.0197038077
 O       -10.0830047343        5.1638901399        3.6894650357
 C       -10.9784091192        6.3982553814        5.5059628357
 C       -11.8823678782        5.1517143444        5.7073574814
 O       -13.0465824981        5.2615089010        5.4086463866
 C       -11.3542878160        3.7228623156        6.0236956304
 C       -12.4244259623        2.7129290069        6.0792012968
 C       -12.8517435125        1.9920174619        4.7768190445
 O       -12.2631624449        2.0999290936        3.6855885529
 C       -14.0172472673        0.8774048187        4.7303888077
 C       -13.3174953022       -0.2589869838        3.7115832746
 O       -12.4938803586       -0.9282346873        4.2505077839
 C       -13.8515953634       -0.5161668756        2.2103882056
 C       -12.6180099109       -0.8110960728        1.3334021679
 C       -11.7548768127        0.4629864137        1.1087335579
 O       -12.0734652511        1.6191269780        1.0615676170
 C       -10.1953917752        0.1559830244        0.5026827965
 C        -9.3294956562       -0.0083251032        1.7439892758
 O        -9.4076706220        0.9257187572        2.5803091247
 C        -8.5489011516       -1.1753609698        1.9487146350
 C       -10.1898795819       -0.9933746155       -0.5310483115
 C        -9.7862783335        1.4317352711       -0.2518576506
 C       -14.5214497174        0.5210453009        6.0896659376
 C       -15.2614385892        1.5027829983        4.0034784150
 C        -9.6678596014        6.3090564452        6.2940381066
 C       -11.8465408613        7.7612436635        5.8881481390
 C       -12.2081582558        7.3694876841       -0.2600065278
 C       -12.7122916563        5.0204618083       -0.8521103578
 C        -9.1560550763        7.0510065250       -4.8804267953
 C       -10.1097066276        4.9671186744       -6.0248908268
 C        -4.4950839380        5.7862636378       -7.7506247349
 C        -3.5290824654        4.0506319289       -9.1758575171
 H        -1.4838560299        2.8096576063       -7.7290399948
 H        -0.8413539350        3.4581311999       -6.1923428848
 H        -1.1138381979        4.5853573912       -7.4634333802
 H        -5.3231557803        4.0263801522       -5.5958908763
 H        -5.9844594559        2.4736921469       -5.6419585907
 H        -8.0911135037        3.7063332521       -6.8734455211
 H        -7.1518126306        5.0551760648       -7.3797748696
 H        -8.0653835353        5.3177887456       -2.3186642967
 H        -8.9968325277        4.2004526358       -1.7030718532
 H        -9.9781109217        7.1620244494       -1.6377568176
 H        -8.6049936341        6.5808246248       -0.6381626436
 H       -12.7078715354        6.2878341773        3.6027082818
 H       -12.9431082577        7.6567190402        2.5277504090
 H       -10.9870381520        8.3406531059        3.4948017381
 H       -10.2959938395        7.2620173861        2.2363564301
 H       -10.7922080371        3.7910453274        6.9918905609
 H       -10.5877748975        3.3877930669        5.2950640177
 H       -13.3062381668        3.1993007788        6.4958671000
 H       -12.2871377244        1.9753165204        6.8382833269
 H       -14.3562716174        0.2702835293        1.7287797219
 H       -14.5158774600       -1.4156930413        2.3081929229
 H       -12.9768142471       -1.2690973334        0.3843617028
 H       -12.0789034791       -1.5975052005        1.8267786546
 H        -7.8294693052       -1.0886337129        2.7359591930
 H        -8.0037139938       -1.4721314497        1.0148831790
 H        -8.8869751586       -2.1262442710        2.3451017617
 H       -10.6264320861       -1.9484129439       -0.0459324451
 H        -9.2020398728       -1.1673540059       -0.9100114250
 H       -11.1176649128       -1.0382759072       -1.2530914040
 H       -10.6930884276        1.9864938848       -0.7705873488
 H        -9.0149938637        1.4513197717       -1.0178491822
 H        -9.4703734907        2.1477276278        0.4467864422
 H       -14.7786334366        1.4529158011        6.5230281091
 H       -13.7119314415        0.0767411021        6.6635859854
 H       -15.3683579243       -0.2983156692        5.9279075989
 H       -15.1788038394        1.5020396041        2.9693951891
 H       -15.6006208220        2.4819725559        4.2457045223
 H       -16.2276019170        1.0283617335        4.1523278167
 H        -9.8934946277        6.0655826616        7.3801587889
 H        -9.0216015071        7.1217279121        6.2431960828
 H        -9.1378748015        5.4461323734        5.9047799612
 H       -12.6816319153        7.4021384273        6.5974959227
 H       -12.2402286177        8.1931815006        5.0254823787
 H       -11.3052723351        8.5420320867        6.4050078883
 H       -11.3684523381        8.0478821328        0.0397956277
 H       -13.1380242611        7.7255913284        0.2622594344
 H       -12.3849872538        7.4179549515       -1.3494623489
 H       -12.0170050042        4.5438134579       -1.5159390842
 H       -13.4559974610        5.5118643542       -1.4279740361
 H       -13.1726808326        4.2220417489       -0.1580686708
 H       -10.1668584950        7.2771866461       -4.8970180791
 H        -8.7244652610        7.4632953459       -5.7815141901
 H        -8.4927742223        7.5308423864       -4.2036122185
 H       -10.3378046530        3.9614663490       -6.0523662246
 H        -9.6886531715        5.1528902683       -7.0609821424
 H       -11.2725439420        5.1876880209       -5.9211438642
 H        -3.5563941217        6.4001613009       -7.7865760953
 H        -5.0789605419        6.0429359093       -6.9973509984
 H        -5.0642748158        5.9355900127       -8.6074486591
 H        -2.6984135052        4.7732661404       -9.4205441874
 H        -4.4286259971        4.2186322517       -9.7846042281
 H        -3.1343029638        3.0462450925       -9.1944995872
 Na      -10.4878659155        3.1002569045        2.1201886118
