117

 C        -1.4723894405        3.5195965472       -7.6309678800
 C        -2.7435375083        3.5643868332       -6.8707042178
 O        -2.8552641837        3.5890531189       -5.6937425081
 C        -4.1593085586        3.6056683941       -7.8295404748
 C        -5.0541274484        2.5881748286       -7.1417607861
 O        -5.1806302799        1.5153613569       -7.6383181869
 C        -5.7867843353        2.9181421774       -5.6643362035
 C        -7.2472641045        3.2799525532       -5.6570169456
 C        -7.4879046088        4.5392825629       -4.7699531468
 O        -6.5804261414        5.1317298432       -4.3358733881
 C        -8.9238917417        5.2593298701       -4.7472624780
 C        -9.4268280398        5.4181492468       -3.2023691470
 O       -10.6348378523        5.5321923890       -3.0621973809
 C        -8.5600755775        5.4658949749       -2.0329538032
 C        -9.3870353910        6.0133689009       -0.8655196839
 C       -10.4785441046        5.3096541100        0.0455394407
 O       -10.0635918804        4.3370237631        0.7124694547
 C       -12.0541812482        5.6659207937       -0.1333100679
 C       -12.4450766720        6.0674744100        1.2907858776
 O       -12.9158898243        5.2095942549        2.0217037781
 C       -12.2479874646        7.4181798954        2.0528548125
 C       -10.7778311524        7.5384360032        2.7449373381
 C       -10.3244240067        6.4686610976        3.9093089540
 O        -9.3596816937        5.8087662596        3.5419773788
 C       -10.6513174738        6.5669584011        5.4805209487
 C       -11.9751021080        5.5884802993        5.8992747689
 O       -13.0789308995        5.9443872420        5.4122551015
 C       -11.8910412586        4.2647765746        6.7724047368
 C       -13.0167842566        3.2063232106        6.3317594792
 C       -12.9245356925        2.3014998647        5.1111239934
 O       -12.2391751937        2.5547824161        4.1056032262
 C       -13.9792371323        1.0208685025        5.0256225098
 C       -13.2599657215        0.1414241855        4.0017457358
 O       -12.6074918634       -0.8516276721        4.3061761620
 C       -13.5484102418        0.2672415499        2.4192132369
 C       -12.5418469597       -0.5234163743        1.4772808865
 C       -11.9710743651        0.5234332849        0.5714300173
 O       -12.5719261876        1.5879996848        0.3202533449
 C       -10.3510755831        0.2974426138       -0.0337673418
 C        -9.6357675002        0.6009704187        1.4166999001
 O        -9.9132069915        1.6643557402        1.9002708241
 C        -8.7994135232       -0.4605426509        2.0747580700
 C       -10.1707646693       -1.1363347907       -0.5622495317
 C        -9.9477552922        1.3227984409       -1.0296012275
 C       -14.2893494608        0.4011695890        6.3885869514
 C       -15.3287800179        1.6296713614        4.3596212915
 C        -9.4497593344        6.2227043336        6.2842155150
 C       -11.1776724348        7.9430365110        5.9896408761
 C       -12.4000088497        6.8165642185       -1.0733040751
 C       -12.7607795536        4.3760235065       -0.6860022328
 C        -8.7959615571        6.7248060125       -5.2720498084
 C        -9.9434655571        4.4257244804       -5.7029566799
 C        -4.6660221842        5.0717648363       -7.6954183147
 C        -3.9029174645        3.2611426006       -9.3128600831
 H        -1.2460289233        2.5137207859       -7.7646665392
 H        -0.6289668736        3.9149704838       -7.1033668198
 H        -1.5721148989        4.0011336590       -8.5793503395
 H        -5.2208700307        3.6416678302       -5.1565539321
 H        -5.6651647238        2.1077737680       -4.9885565847
 H        -7.8040423790        2.3748713630       -5.2670300789
 H        -7.6711954531        3.4950319327       -6.6391146936
 H        -7.5997117870        6.0034921615       -2.1943518191
 H        -8.3064727635        4.4244356354       -1.7619583556
 H        -9.9139082882        6.8820527076       -1.2088426600
 H        -8.7433190214        6.5203317188       -0.1867693908
 H       -13.0992471028        7.4268780874        2.7137106393
 H       -12.3286464462        8.3433771838        1.4843868870
 H       -10.7638579922        8.4948230873        3.2275277845
 H        -9.9692060949        7.4981183964        2.0783324400
 H       -12.0052491714        4.5165996140        7.8379485456
 H       -10.8919308389        3.8293293444        6.6384772384
 H       -13.9205572241        3.7698866102        6.1992599664
 H       -13.2435680434        2.5929742104        7.2076477465
 H       -13.7345634732        1.1997671410        2.0609711275
 H       -14.5982580506       -0.1393041677        2.3682516350
 H       -13.2050261829       -1.2186770300        0.9202015995
 H       -11.9084221323       -1.1733864866        2.0967544401
 H        -8.6261732779       -0.1095328828        3.0701681261
 H        -7.7950563287       -0.6739721207        1.8147909707
 H        -9.1592494882       -1.4386866449        2.1412193962
 H       -10.3116915531       -1.8883672992        0.2168044622
 H        -9.2481594492       -1.4209014640       -1.0222826765
 H       -10.9102050093       -1.1858495564       -1.4048759815
 H       -10.5946536646        1.3785717272       -2.0020931481
 H        -8.9447594777        1.1937032024       -1.1982021377
 H       -10.1353874697        2.3576237697       -0.7214098810
 H       -14.7687144063        1.0439254643        7.1745510888
 H       -13.4194562393       -0.2469902984        6.6017388925
 H       -14.9903207104       -0.4480799282        6.1512063460
 H       -15.2925504916        2.4452969168        3.6452809438
 H       -15.9822098622        2.2021505684        5.0159819429
 H       -15.8906812622        0.8675597454        3.9984056076
 H        -9.6578783529        6.2731651126        7.3311377559
 H        -8.5933070596        6.9654898790        6.1214922258
 H        -9.0235639695        5.2432144813        6.0839754869
 H       -11.3788265764        7.8955185945        7.0407676568
 H       -12.1843847577        8.2014752243        5.6817538496
 H       -10.4708009801        8.7147794104        5.7562605523
 H       -11.8627759715        7.6538103575       -0.6690163756
 H       -13.4762370226        6.9511514949       -1.0573848323
 H       -11.8382355399        6.6812879919       -2.0381621643
 H       -13.3389120447        4.7545161079       -1.4330915738
 H       -13.4182003606        3.8860157431        0.0287769959
 H       -12.0587912416        3.5963724542       -0.9796773618
 H        -9.7970690382        7.2674222753       -5.1956597904
 H        -8.6874134099        6.7100190621       -6.3723334604
 H        -8.0089541538        7.2368476891       -4.7905273426
 H       -10.2880568463        3.4605622794       -5.5139984748
 H        -9.6654352587        4.3230513343       -6.7363349177
 H       -10.9134169456        5.0196656761       -5.6593403092
 H        -3.9526328600        5.8291101108       -7.9806727723
 H        -4.9647301593        5.3058723178       -6.6602797518
 H        -5.5584867468        5.2007840781       -8.3677793825
 H        -3.4457809237        4.1013309704       -9.9050965714
 H        -4.7330331188        2.7975692838       -9.8319077964
 H        -3.0764377987        2.5344046295       -9.2362453400
 Na      -11.5944799939        3.1902410494        2.0333703990
