117

 C        -1.4238494170        3.5167657669       -7.7065162372
 C        -2.7597654172        3.4719326483       -6.9798737932
 O        -2.8061257833        3.5333129171       -5.7538993490
 C        -4.0921539944        3.5007789784       -7.7671657395
 C        -5.1064374860        2.4657239124       -6.9533780583
 O        -5.2635896047        1.3228365528       -7.4899896516
 C        -5.6420836266        2.6800735972       -5.5421203430
 C        -7.2099021038        3.1981469510       -5.5653212786
 C        -7.4937731064        4.5560560358       -4.7458783661
 O        -6.5661761401        5.2265360916       -4.2198264524
 C        -8.8697181725        5.2470477685       -4.6680554592
 C        -9.4616225571        5.3529850150       -3.1900277757
 O       -10.6564967820        5.4924541852       -3.2035956842
 C        -8.5481752008        5.4959226191       -1.9561901516
 C        -9.4026124499        6.1909044582       -0.8618235319
 C       -10.4686705547        5.2999774816       -0.1854857164
 O       -10.2088790526        4.3253350898        0.5809435068
 C       -11.9389986361        5.7742109195       -0.2381114544
 C       -12.4109335642        6.0522916848        1.2797448329
 O       -12.9520463961        5.2495698711        1.9729159343
 C       -12.1519664517        7.5004252579        1.9020825147
 C       -10.9322303402        7.4945740799        2.9446660094
 C       -10.3364708203        6.4479317619        3.8921076030
 O        -9.3864819345        5.8261061519        3.5327135186
 C       -10.6602963705        6.5185200872        5.5467302384
 C       -11.9824500674        5.6309262222        5.7890429162
 O       -13.0608161068        6.0436894256        5.4911454774
 C       -11.8704475116        4.4592464488        6.6728924693
 C       -12.9841056594        3.3496672692        6.3914111086
 C       -12.9676095603        2.4543745820        5.1492752656
 O       -12.2572632013        2.6324907820        4.1679450972
 C       -13.9235640897        1.1280944786        5.0296865038
 C       -13.2421294564        0.0673737171        3.9742330722
 O       -12.6786597572       -0.8325680279        4.4880705135
 C       -13.5615977754        0.2906604937        2.4734635001
 C       -12.7425103119       -0.4273505779        1.4116329793
 C       -11.9940738110        0.4433852256        0.4856876632
 O       -12.2656384080        1.6419027148        0.2706598009
 C       -10.5247748634        0.1575657486       -0.0056319096
 C        -9.7328364537        0.5975245101        1.3598744389
 O        -9.9423483883        1.7114026678        1.7765919160
 C        -8.7800487793       -0.3015124577        1.9249181429
 C       -10.1905784228       -1.2541559175       -0.4296164941
 C       -10.0141408912        1.1956093655       -1.0310439307
 C       -14.2328824982        0.3477357606        6.2734116989
 C       -15.2429869349        1.5743802499        4.4397687664
 C        -9.3859460362        6.1881512767        6.3341130250
 C       -11.0516326743        8.0495619553        5.7489993934
 C       -12.3041021926        6.9558654675       -1.2834035696
 C       -12.8183507082        4.5231747321       -0.5591391470
 C        -8.6434091773        6.6131533949       -5.2466731013
 C        -9.9697862197        4.3448183019       -5.4142819164
 C        -4.5701127592        4.9103249880       -7.6716827972
 C        -4.0608594981        3.1286441478       -9.3418846205
 H        -1.0166177777        2.4235059765       -7.8943069620
 H        -0.6544109832        3.9599483538       -7.0904036105
 H        -1.5127443598        3.9830847883       -8.6219689874
 H        -4.9602681785        3.3949881921       -5.0350005685
 H        -5.5539111285        1.8250813012       -4.8406035480
 H        -7.8161986273        2.4695563352       -5.1530938884
 H        -7.4872174108        3.3357458266       -6.6333031509
 H        -7.6697018729        6.0376581379       -2.2682358401
 H        -8.2855448117        4.5558114381       -1.3956046463
 H        -9.8355324273        7.1530254557       -1.0620551096
 H        -8.7969669538        6.4489814398       -0.0093365760
 H       -13.1574046925        7.9437493365        2.2237903774
 H       -11.7287021369        8.2447776994        1.2193070608
 H       -11.1319176760        8.4245303966        3.5330880189
 H       -10.0740149849        7.7624867156        2.3536105573
 H       -12.1163558428        4.9488566958        7.6161692417
 H       -10.8904788408        4.0647191811        6.8013108372
 H       -13.9508377135        3.8924379046        6.4053115683
 H       -13.0289841494        2.7248333362        7.3072090728
 H       -13.3328411167        1.3717114656        2.4828633086
 H       -14.6871774495        0.4132760928        2.2485461041
 H       -13.5002632886       -1.1900835552        0.9678542554
 H       -12.1098835040       -1.0409360755        1.9874421795
 H        -8.4153712642       -0.0061594122        2.8569892373
 H        -7.8103808230       -0.3098846047        1.4376129962
 H        -8.9914910693       -1.3236384580        1.9302676096
 H       -10.3057550565       -1.9486889031        0.3204724523
 H        -9.2434505790       -1.3379241935       -0.7768444901
 H       -10.6966000355       -1.3998232897       -1.3920471736
 H       -10.4468152399        1.0041566848       -2.0498844372
 H        -8.9193671324        1.1860893641       -0.9807291517
 H       -10.3787600932        2.1658175924       -0.9299372469
 H       -14.6646769903        0.9602208181        7.0349029607
 H       -13.3579242011       -0.2202767902        6.4856422418
 H       -14.9926695681       -0.5349502560        6.0688106790
 H       -15.2740620618        1.9530397302        3.4303290373
 H       -15.8233366353        2.4086599539        4.8005877401
 H       -15.8809821731        0.6449317204        4.5014793207
 H        -9.5322114121        5.7040365692        7.3813696896
 H        -8.8428884307        7.0831627811        6.5818529344
 H        -8.7009216226        5.5340209881        5.7872450817
 H       -11.7067513756        8.3766393535        6.6494558464
 H       -11.7811247972        8.3588425905        5.0258058236
 H       -10.1297595024        8.6286223101        5.6932490500
 H       -12.0123517748        7.9332456595       -0.8656481046
 H       -13.3575541079        6.8488914236       -1.4746794084
 H       -11.6247023765        6.8611611639       -2.1143421926
 H       -13.5033888830        4.8450941299       -1.3089588862
 H       -13.4300584232        4.2642739939        0.2826890975
 H       -12.2676009059        3.5699405734       -0.7952554383
 H        -9.5970133109        7.1257721199       -5.2098794545
 H        -8.4834648790        6.6062682393       -6.3679211832
 H        -7.9384329032        7.1656368297       -4.5888671323
 H        -9.9977986341        3.2905666750       -5.2066963518
 H        -9.9172765445        4.3270385933       -6.5717586008
 H       -11.0627907139        4.7221588731       -5.1770537131
 H        -3.9064449163        5.7797895279       -8.1963908939
 H        -4.7446987259        5.2451738093       -6.6762897011
 H        -5.5255625399        4.8920522235       -8.2942160734
 H        -3.6015234388        3.9114435635      -10.0129508769
 H        -5.1418933785        2.9580750743       -9.5737071330
 H        -3.5627569760        2.1732480386       -9.5154770586
 Na      -11.7692908358        3.2053891183        2.0339614307
