117

 C        -1.7934642088        2.9855839493       -8.3021619723
 C        -2.7675361508        2.7806617931       -7.1539905169
 O        -2.4466573795        2.8673842422       -5.9828392202
 C        -4.3398047307        2.6782672444       -7.4673211895
 C        -4.8960193745        1.9750869148       -6.2014060669
 O        -5.2895820038        0.8380044028       -6.4448723351
 C        -5.2835613030        2.7425364515       -4.9960852890
 C        -6.9127811708        2.8800953021       -4.8528174278
 C        -7.2309253657        4.2523463354       -4.1510749257
 O        -6.3950180945        4.7460513999       -3.4577670054
 C        -8.6340003288        4.8549784178       -4.4409346104
 C        -9.4167516497        5.0275942329       -2.9862182463
 O       -10.5685008446        4.6553126951       -2.8321300321
 C        -8.5663444983        5.7710287229       -1.8581747581
 C        -9.5299289365        6.5701471518       -0.9738250305
 C       -10.7262025245        5.6663362567       -0.4458029648
 O       -10.5338806851        4.4892386586       -0.3239322343
 C       -11.9974836490        6.5343372177       -0.3155506173
 C       -12.3264432560        6.5217241333        1.3260908181
 O       -12.4447161806        5.3540835116        1.8190826772
 C       -12.1271413409        7.7109686032        2.1562943431
 C       -10.5640266958        7.6922870938        2.5157916039
 C       -10.5051671128        6.5213072835        3.7046084524
 O       -10.4075118418        5.4024206971        3.3900194871
 C       -10.6306948818        6.8719449812        5.2194608915
 C       -11.8120376032        5.9414982801        5.5083059808
 O       -12.9376198054        6.3895530445        5.2063777350
 C       -11.7415179884        4.5390209066        6.1023500220
 C       -13.1080610435        3.8585361755        5.9388533619
 C       -13.0772250201        2.8471919983        4.8802991260
 O       -12.5019132115        3.0533925546        3.8167253453
 C       -13.8869190553        1.5130422680        5.0763416897
 C       -13.3339451316        0.5599635050        3.8963578071
 O       -12.5435387517       -0.3144252453        4.1370739044
 C       -13.9369163180        0.6188890685        2.4685462504
 C       -13.3079844872       -0.4782172801        1.4653491598
 C       -12.2274758383        0.4186033659        0.7034110931
 O       -12.5795056131        1.4846470082        0.2900487912
 C       -10.6920734208       -0.0984134749        0.3243435171
 C        -9.6022484504        0.7392754827        1.1736048053
 O        -9.8280176192        1.5917012601        1.9750115511
 C        -8.1850475437        0.1983190080        0.9937261572
 C       -10.6176096457       -1.6314516895        0.8248350177
 C       -10.3815298177        0.1842607150       -1.1816602617
 C       -13.5882037238        0.9323891320        6.5165573822
 C       -15.4601741596        1.8607540356        4.9371652877
 C        -9.1812634700        6.6797339208        5.8847767852
 C       -10.9821013174        8.3045633623        5.5507580906
 C       -11.9548148398        7.9218953437       -0.9796661511
 C       -13.3344267383        5.8553768285       -0.7782356146
 C        -8.3367479719        6.0703600466       -5.1509536115
 C        -9.4420769796        3.8590603148       -5.4233616770
 C        -4.7336516957        4.2090020306       -7.5826913925
 C        -4.6701580729        1.9304289280       -8.7933960236
 H        -1.8530012958        2.2248122472       -9.1310562553
 H        -0.7090185473        3.2705656956       -8.0195852058
 H        -2.1810580474        3.8160548218       -8.9406055434
 H        -4.9080360196        3.7840000968       -5.0552936093
 H        -5.1546833851        2.2804122470       -3.9793132811
 H        -7.2354811018        1.9569398524       -4.1948342692
 H        -7.2838163025        2.7565048497       -5.8334249710
 H        -7.8830516771        6.5544725782       -2.2192810807
 H        -8.2043829148        5.0923253788       -1.1203002796
 H        -9.8954546040        7.4261614620       -1.5600730800
 H        -8.8708494785        6.9521021783       -0.1430371136
 H       -12.6714170098        7.3763504758        3.0645459640
 H       -12.6326317838        8.6848577247        1.8827735017
 H       -10.1716511660        8.6076924403        3.0948795048
 H        -9.8687323115        7.6471668320        1.6007033379
 H       -11.3824505851        4.5151384833        7.1166604523
 H       -10.9767714768        4.0768886993        5.4627192643
 H       -13.7404191561        4.7272592391        5.5660031171
 H       -13.4938525130        3.4938360098        6.9109409385
 H       -13.9268320278        1.4991397759        1.8183974689
 H       -15.0795220128        0.4352313268        2.5148420015
 H       -13.9270267671       -0.8736541348        0.7032525144
 H       -12.7897032447       -1.3090704054        2.0588764417
 H        -7.4976403714        1.0015556930        0.6689215354
 H        -7.8677961359       -0.5922701481        0.2557040584
 H        -7.7850096884       -0.2420409123        1.9622605148
 H       -10.5607347602       -1.6589631379        1.9065152326
 H        -9.8602354319       -2.1658700465        0.2881561319
 H       -11.7105638648       -1.9098853498        0.5305460741
 H       -11.2505920603       -0.3405642025       -1.7776881261
 H        -9.5813920614       -0.2403268121       -1.6367424562
 H       -10.3112546627        1.2560298347       -1.2919771155
 H       -14.0137424219        1.4382150946        7.3215321969
 H       -12.5645085625        0.9487588216        6.6405802200
 H       -14.0547637218       -0.1040054975        6.5051320393
 H       -15.9292384573        1.9060826678        3.9138047713
 H       -15.7560842401        2.6553497603        5.6871287318
 H       -16.0641248858        1.1188007121        5.3783853429
 H        -8.9972788897        7.3086028580        6.7285121338
 H        -8.3713609604        6.8643951547        5.1007737672
 H        -9.0763941075        5.6631608994        6.2161686865
 H       -10.1501096591        8.7557559944        6.0921154898
 H       -12.0227154475        8.4704689029        5.9273694970
 H       -11.1136704076        8.9493991188        4.6667817636
 H       -11.3385511222        8.4872347818       -0.3618173643
 H       -12.9274426182        8.3193566210       -0.7967865791
 H       -11.9063365041        7.8571903802       -2.0928830022
 H       -13.2612570822        5.5458655437       -1.7487269108
 H       -14.0507507878        6.7232807465       -0.7012217568
 H       -13.6751732904        4.9118252052       -0.2718703606
 H        -9.2405596085        6.7910539983       -5.1883616411
 H        -7.8701929843        5.7795571906       -6.1506477095
 H        -7.6783109850        6.6398153919       -4.5603120120
 H        -9.6007300241        2.9613312262       -4.9585830144
 H        -9.1271784542        3.8730172920       -6.5124659657
 H       -10.4705144483        4.3417978834       -5.7256265218
 H        -4.2452282209        4.7958040237       -8.4235746505
 H        -4.6025435595        4.7569452476       -6.6872135451
 H        -5.8590988944        4.3159485867       -7.8495182074
 H        -4.7274819561        2.6199193205       -9.6672887693
 H        -5.6587313356        1.4658637943       -8.8767426937
 H        -3.9717665872        1.1143517054       -8.8835982608
 Na      -11.3626980398        3.3309620425        1.2946441947
