117

 C        -1.9230467346        2.8719753427       -8.3624547287
 C        -2.8049424098        2.7115479557       -7.1575630094
 O        -2.3005996242        2.7103196489       -6.0272931691
 C        -4.3500563661        2.6208508506       -7.4375166978
 C        -5.1152034102        1.9090858532       -6.2488311989
 O        -5.1272965011        0.6279679394       -6.1409906574
 C        -5.2924067345        2.7004511918       -4.9916823497
 C        -6.7656770890        2.6948211458       -4.6978469866
 C        -7.2132309238        4.0640144405       -4.0914438975
 O        -6.4072929227        4.6992273482       -3.4144054219
 C        -8.6031573744        4.7204555487       -4.3977079076
 C        -9.3345583090        4.9947065487       -3.0633105896
 O       -10.5025578386        4.6979291924       -2.8900394806
 C        -8.6099982060        5.7177328935       -1.9405597796
 C        -9.5224473950        6.5507246017       -1.0686108931
 C       -10.8056866705        5.8688862346       -0.5601331864
 O       -10.6567304292        4.7030604981       -0.1415981968
 C       -12.2008486629        6.7057548889       -0.2644019407
 C       -12.3875697266        6.4854779043        1.2654186665
 O       -12.6223330692        5.4113320826        1.7098118605
 C       -12.0855362205        7.7221787385        2.2281996942
 C       -10.5542082959        7.5536292251        2.5584139561
 C       -10.2429749288        6.5399480026        3.5095688000
 O       -10.1170690219        5.3851633808        3.3098003329
 C       -10.5065327461        7.0395187581        5.0820581395
 C       -11.7430879586        6.1602847598        5.4472395149
 O       -12.8028343640        6.6542730260        5.3398541111
 C       -11.6617610432        4.6463258536        5.9222022867
 C       -13.0813814849        4.0079323918        5.9938220985
 C       -13.1593027685        2.8952180313        4.8910776606
 O       -12.5973266323        3.1114451893        3.8375090635
 C       -13.8950506521        1.4221746868        5.0450922755
 C       -13.4476725042        0.4626056473        3.8660691181
 O       -12.5142318028       -0.2477624617        4.0474363643
 C       -14.1326393115        0.5375185297        2.5191648469
 C       -13.3762570221       -0.2722484508        1.4465254660
 C       -12.2596440926        0.3829507025        0.7693950945
 O       -12.4908913682        1.5752539495        0.4458451471
 C       -10.8614120235       -0.1822418300        0.3831568295
 C        -9.6078439051        0.6229895635        1.1890932357
 O        -9.8317445279        1.6345066926        1.8205977464
 C        -8.1243103109        0.3030751048        0.9360696184
 C       -10.5191577883       -1.6113475638        0.8273779570
 C       -10.6040585635       -0.0906809532       -1.1093357777
 C       -13.6180873117        0.9404051564        6.4575176661
 C       -15.3835762372        1.7109034003        4.9285732691
 C        -9.2800248397        6.6381476079        5.9235134716
 C       -11.0528603383        8.5539410708        5.5341011440
 C       -12.0547904893        8.1109044212       -0.8080662409
 C       -13.3256495405        5.8487608719       -1.1383832478
 C        -8.2218628709        6.1828483246       -5.0182801007
 C        -9.4493930031        3.8136337411       -5.3838676996
 C        -4.7640858572        4.0867936020       -7.6675611002
 C        -4.5892136464        1.8124380231       -8.7246164267
 H        -2.0183910792        1.8579265356       -8.9621984806
 H        -0.9185824203        2.9982029066       -8.0335071695
 H        -2.1027335037        3.5361594951       -9.1706486099
 H        -5.0577543263        3.7400442534       -5.1575742225
 H        -4.8686267431        2.2438515686       -4.1364974281
 H        -6.9315260304        1.7362255479       -4.1211567786
 H        -7.2184630793        2.5568270058       -5.7467007642
 H        -7.8793693614        6.4389483972       -2.2338150143
 H        -8.3184956279        4.8968177991       -1.2689312573
 H        -9.9221083642        7.2929595804       -1.8003089923
 H        -8.9236403828        7.1061699360       -0.3002890404
 H       -12.8098051862        7.6691887239        3.0582150742
 H       -12.1971026570        8.7163726644        1.8126661554
 H        -9.9815066025        8.4788090465        2.9131654744
 H       -10.1354840863        7.3688589625        1.5910848574
 H       -11.2554398202        4.5821104753        6.9622665842
 H       -10.9451983458        4.0792033129        5.2877995227
 H       -13.7895088659        4.8128749624        5.7295816219
 H       -13.2390574371        3.6785592101        7.0297317462
 H       -14.1621985516        1.5152507573        2.2186341710
 H       -15.1664892580        0.1996795401        2.3557407323
 H       -13.9550456831       -0.6527153327        0.5633773975
 H       -12.9386119844       -1.1110309634        1.9132384092
 H        -7.4795777795        0.9754649038        0.3212229204
 H        -8.0186918899       -0.6969321998        0.3871643583
 H        -7.6226135308       -0.0291638290        1.9016507656
 H       -10.9508001652       -1.8176252317        1.8903103924
 H        -9.4149794959       -1.6917923718        0.6882203691
 H       -11.1508147091       -2.2089310390        0.0946447493
 H       -11.1683946053       -0.8289112740       -1.5718459505
 H        -9.5609832936       -0.4996348756       -1.4386368637
 H       -10.6798366489        0.9225493055       -1.4936944184
 H       -14.0925855421        1.4899949526        7.2363426484
 H       -12.5739615402        1.0200707528        6.7204798206
 H       -14.0357111222       -0.0835647255        6.3909026530
 H       -15.7228516324        1.6748970796        3.9164060503
 H       -15.6355952966        2.6082496615        5.5093889891
 H       -16.1186558053        1.0094545702        5.4086688586
 H        -9.4177487774        6.9992257160        6.9936355183
 H        -8.3716963922        7.0136567446        5.5435928031
 H        -9.2687588396        5.5759009857        5.9318690109
 H       -10.2835811815        9.1211270008        6.1538615226
 H       -12.0407523233        8.4401916396        5.9187746520
 H       -11.3491230028        9.1629695545        4.7263247185
 H       -11.1976691904        8.4696030743       -0.2833810101
 H       -12.8535023761        8.7742231655       -0.5572619097
 H       -12.1121521467        7.9801338497       -1.8779909756
 H       -12.8044592594        5.5656168509       -2.0798778354
 H       -14.0989907508        6.5520006709       -1.3604139133
 H       -13.7137195959        4.8723764282       -0.7534237405
 H        -9.0302765488        6.8525544634       -5.2081560792
 H        -7.6111422243        5.8090538548       -5.8828295848
 H        -7.5448892625        6.7615089040       -4.3356297679
 H        -9.7132680871        2.9060767274       -4.8572131855
 H        -9.1641385619        3.7070810608       -6.3575230345
 H       -10.3970005274        4.3666618826       -5.5387524502
 H        -4.5192362329        4.5427897084       -8.6724889621
 H        -4.4987736661        4.8079954131       -6.9560101281
 H        -5.8186067888        4.0725401779       -7.6267502399
 H        -4.9830281383        2.3142129031       -9.6373239577
 H        -5.4998127692        1.2254204004       -8.5326539583
 H        -3.8648776023        1.0315655407       -8.9341089813
 Na      -11.3756905664        3.3918652708        1.4071141429
