117

 C        -1.8575744876        2.5312546572       -8.5539346063
 C        -2.7492383403        2.4106956274       -7.3197520122
 O        -2.1520045536        2.4267298828       -6.2159735773
 C        -4.3314807226        2.1916688047       -7.4512116062
 C        -4.7950176593        1.5491943285       -5.9919212362
 O        -4.9465510714        0.2483777223       -5.8771606477
 C        -5.0369982412        2.4741539907       -4.8582810882
 C        -6.6277188545        2.5759738129       -4.5820337176
 C        -7.1080677538        3.9057287584       -3.8414978387
 O        -6.4483230343        4.5266967542       -3.0332675531
 C        -8.4128729165        4.5629294796       -4.3185811903
 C        -9.4316754086        5.0051872316       -3.1178520067
 O       -10.6378490529        4.7786653506       -3.0182085935
 C        -8.8134487761        5.7162951730       -1.9892876441
 C        -9.7524713357        6.7534677560       -1.4398305372
 C       -10.7491809402        6.1633984826       -0.4794953463
 O       -10.5018766425        5.2340334512        0.2059136197
 C       -12.2103131037        6.8526111542       -0.3345320535
 C       -12.6719364782        6.6579450656        1.1189845258
 O       -13.3546585667        5.5821385290        1.3035197953
 C       -12.2350487066        7.5708729990        2.2582359302
 C       -10.5802609635        7.4195355870        2.3264875010
 C       -10.0078218500        6.6461643311        3.4934439746
 O        -9.2685280417        5.7068332998        3.4245430202
 C       -10.4807541675        7.1917713756        4.9701876639
 C       -11.8841197316        6.3949439521        5.3198058753
 O       -12.8878013925        6.9063082039        5.6380576294
 C       -11.6920996203        4.8142709096        5.4236933117
 C       -12.8978091325        3.9504026800        5.7761864627
 C       -13.2202079065        2.9075604065        4.7424372902
 O       -12.9216221773        3.0712988408        3.5634555708
 C       -13.9294194264        1.5281394331        4.9967313564
 C       -13.3816798229        0.4811421313        3.8715310534
 O       -12.3560924521       -0.1035215400        4.0063364335
 C       -14.2385834922        0.4291245989        2.5571991297
 C       -13.5797603000       -0.4098963149        1.3601554481
 C       -12.3298389508        0.5048456919        0.9506280769
 O       -12.4134381597        1.7349340138        0.8668021889
 C       -10.8257479081       -0.2337867287        0.6613809826
 C        -9.6838210386        0.7094306175        0.9321410495
 O        -9.8350537079        1.8308289413        1.4100193024
 C        -8.3164304163        0.2115512508        0.6153260582
 C       -10.7404430871       -1.5675544079        1.3755600349
 C       -10.8940880581       -0.3942982145       -0.9505902326
 C       -13.4655267825        0.9064427775        6.3862684189
 C       -15.4437299880        1.9001847746        4.9850664300
 C        -9.4759544653        6.6133619230        6.0402409357
 C       -10.5083411906        8.7495708044        5.1174047487
 C       -12.2558243226        8.4195138401       -0.8454519053
 C       -13.0395819435        6.1314598205       -1.3069019407
 C        -8.0408683596        6.0149870401       -4.9937891783
 C        -9.1456953323        3.8150988901       -5.4263280113
 C        -5.0533853957        3.5530651617       -7.7214328956
 C        -4.7144945889        1.0849968464       -8.5263724378
 H        -1.4621304420        1.4551691060       -8.8590047239
 H        -1.0488167235        3.2393548875       -8.4254636244
 H        -2.2974327215        2.7912858081       -9.4915657485
 H        -4.7549123293        3.5431890479       -4.9858331741
 H        -4.5617982292        1.9470028210       -3.9912237183
 H        -6.8027104421        1.6712186538       -3.9349896267
 H        -7.1320213899        2.2326366937       -5.4343917200
 H        -7.8968162072        6.1831071271       -2.3431822460
 H        -8.6799603232        4.9332749675       -1.2091690058
 H       -10.2129939981        7.2597631191       -2.2735543560
 H        -9.2558767777        7.5198899058       -0.8091872924
 H       -12.4831261543        7.2819856743        3.2849795014
 H       -12.5840467787        8.6465578731        2.2337751116
 H       -10.3326275448        8.4976610697        2.6476810074
 H        -9.9471371187        7.0790630275        1.4693703734
 H       -10.9444856061        4.7179419088        6.1719185175
 H       -11.2489822446        4.3510371735        4.5468181763
 H       -13.8312053244        4.5450578922        5.9292890696
 H       -12.6453986940        3.3740930124        6.6893385467
 H       -14.2379478418        1.4491219028        2.1377132847
 H       -15.3668584764        0.1207351118        2.4765469497
 H       -14.1299154009       -0.5525904187        0.4549879216
 H       -13.1306492170       -1.4081405905        1.6276240617
 H        -7.8935231698        0.8736214952       -0.1125998860
 H        -8.2091429903       -0.8159836850        0.2939649426
 H        -7.7151401220        0.3437803410        1.5296637562
 H       -11.0663458966       -1.3957041076        2.3654873490
 H        -9.7606346166       -1.8479742327        1.4063012960
 H       -11.5285438673       -2.2482889345        1.0783721210
 H       -11.7621283313       -0.9685000483       -1.2915153371
 H       -10.0356739704       -0.9781527921       -1.3614232039
 H       -10.8653052244        0.5999668751       -1.3542563647
 H       -13.6045615551        1.6187254575        7.1123295413
 H       -12.4088588008        0.7489914127        6.4306493987
 H       -13.9863587860       -0.1133407952        6.5417687532
 H       -15.6799760345        2.7314345935        4.2898404484
 H       -15.7392560185        2.1620576030        6.0378228627
 H       -16.0707878691        1.1205060318        4.5800121276
 H       -10.0578432849        6.3433909882        6.9588244656
 H        -8.7989916366        7.4560110649        6.3176702491
 H        -8.9405442673        5.7788020650        5.6240865817
 H        -9.9455071782        9.1472868505        4.1940761258
 H        -9.8320440297        9.0037512729        5.9937471961
 H       -11.5044760562        9.1800429207        5.1294256289
 H       -11.6177686002        9.0272996820       -0.2317714565
 H       -13.2594835942        8.8007845589       -0.7714117753
 H       -12.0340272608        8.3927132579       -1.9704596744
 H       -12.6341312883        6.3157598793       -2.2567449311
 H       -14.1175189943        6.2954354440       -1.2643523274
 H       -12.8675449409        5.0376939015       -1.1324575820
 H        -9.0095128228        6.5185075728       -5.0555681187
 H        -7.5677096872        5.7901521442       -5.9831914703
 H        -7.2696683780        6.6214560297       -4.6039644610
 H        -9.5439571242        2.8323104846       -5.0307371389
 H        -8.4935000178        3.5711233833       -6.3128213216
 H       -10.1044324879        4.3982616798       -5.7413304477
 H        -4.6983341508        4.0711162824       -8.7005913321
 H        -4.8993680008        4.3458999908       -7.0385457481
 H        -6.1510054113        3.4039237383       -7.5525794132
 H        -4.0512991572        1.1127739484       -9.4563789824
 H        -5.7004431085        1.1259557055       -8.9486535398
 H        -4.5024553819        0.0820314592       -8.1804927436
 Na      -11.5158509829        3.8549964421        1.9798229518
