117

 C        -2.1341751468        2.1729716902       -8.7284275454
 C        -2.8061755615        2.0924355901       -7.3431452417
 O        -2.1890044011        2.3314000630       -6.2798103205
 C        -4.3699371617        1.5933757045       -7.2058569823
 C        -4.7329993501        1.2219884950       -5.7494301763
 O        -4.9797411677        0.0356300653       -5.4654033119
 C        -4.8031610580        2.3358887862       -4.7423303654
 C        -6.4194839325        2.7014684905       -4.8402523127
 C        -6.9827279404        3.7687994293       -3.8581274052
 O        -6.4643792005        3.9412524463       -2.7997566667
 C        -8.2242360175        4.6359147795       -4.4257498507
 C        -9.1946282701        5.0688160475       -3.2637950559
 O       -10.3730424986        4.5940134968       -3.2198076917
 C        -8.6726445462        5.8576936694       -2.0951398598
 C        -9.8355140193        6.8940991415       -1.7472656492
 C       -10.6534376592        6.2333677655       -0.5718960574
 O       -10.2000388527        5.3695206682        0.1122204850
 C       -12.1139849995        6.8229544424       -0.4203386277
 C       -12.6277187980        6.4498828260        1.0910984365
 O       -13.6977099315        5.8199180096        1.3096218725
 C       -12.2489939380        7.4370225270        2.2726012778
 C       -10.6740450027        7.8041083283        2.4662515515
 C        -9.9937941980        7.0189106485        3.6127306177
 O        -9.3669185714        6.0103352377        3.3974813498
 C       -10.3622032703        7.2691485236        5.1125161694
 C       -11.6801001643        6.2640581551        5.3754213088
 O       -12.7126863011        6.6758425825        5.7893726828
 C       -11.5522068603        4.7741614859        5.0528364769
 C       -12.9114265150        4.1060768222        5.3982223146
 C       -13.2922693929        3.0429030437        4.4211876998
 O       -13.0379110888        3.1411172460        3.2131639411
 C       -14.0084791684        1.6571804603        5.0126399622
 C       -13.5515902116        0.6179064616        3.9458571843
 O       -12.4916533930        0.0772821212        3.9248755924
 C       -14.4240085768        0.4176333767        2.7053639864
 C       -13.7207138915       -0.0112955323        1.4302625603
 C       -12.4145571209        0.7641779536        1.2363645940
 O       -12.4402836384        1.9643970346        1.0852002344
 C       -11.1472909094       -0.0203837655        0.9131451091
 C        -9.8842880226        1.0397206297        0.8253017689
 O        -9.8813161863        2.2061175795        1.1507688131
 C        -8.3648272612        0.3960445901        0.4308559011
 C       -10.6946101863       -0.9712069441        1.9985504003
 C       -11.3756428135       -0.6505478026       -0.4452266489
 C       -13.3044466693        1.1985939972        6.3213195212
 C       -15.6532918850        1.8009823921        5.1111304955
 C        -9.0573390833        6.9662515032        5.9268240662
 C       -10.7842940897        8.6868932524        5.5176552592
 C       -12.3814227268        8.3753685543       -0.5790255246
 C       -13.0585037255        6.2111822237       -1.4391601874
 C        -7.6122906004        5.7574361435       -5.3556916606
 C        -9.0955586672        3.6085443391       -5.4665311639
 C        -5.0765823067        2.9324296388       -7.6868714735
 C        -4.6090663755        0.3185341423       -8.1094282807
 H        -1.4472036883        1.3284412576       -8.9773587094
 H        -1.4966792756        3.0022185895       -8.7287289318
 H        -2.7127050606        2.2904226173       -9.5636100913
 H        -4.1784974249        3.0852056207       -5.1448652281
 H        -4.5672677583        2.1159071680       -3.6952930675
 H        -6.7269900539        1.7081015091       -4.4964997920
 H        -6.8177857178        2.6473292764       -5.7582375900
 H        -7.7928124495        6.4297626042       -2.4761670958
 H        -8.3904134849        5.2607574868       -1.2058308940
 H       -10.4620222162        7.0322442578       -2.6204328747
 H        -9.4317716719        7.8616423149       -1.4277357300
 H       -12.5300033994        6.9585427954        3.1747262929
 H       -12.8473336920        8.3309930291        2.1107103897
 H       -10.5608302802        8.7550314787        2.8385526962
 H       -10.2893127175        7.7704842465        1.4906965021
 H       -10.6820178069        4.2688386348        5.5110700206
 H       -11.3342313431        4.7009355900        3.9454843617
 H       -13.6766130974        4.8791932130        5.3930953006
 H       -12.9107978371        3.6486668236        6.3520092445
 H       -15.0047693455        1.2783439371        2.3062297607
 H       -15.1305685885       -0.4192737418        2.8869265479
 H       -14.2476452603        0.0765922574        0.4888593585
 H       -13.3042677356       -1.1173273057        1.3520456033
 H        -8.0368966670        1.0560184406       -0.3745347172
 H        -8.5388947041       -0.6560581736        0.1183342307
 H        -7.6855981091        0.5564878730        1.2926416739
 H       -10.3511447157       -0.4941178162        2.9138562620
 H        -9.9510317293       -1.6453754875        1.5587976324
 H       -11.6238259764       -1.5488096261        2.4385834646
 H       -12.4272170787       -1.0878090344       -0.5494451300
 H       -10.6100722466       -1.2916987356       -0.8293055259
 H       -11.5314400397        0.2108052689       -1.0664733404
 H       -13.3796826650        2.0131628199        7.0469032505
 H       -12.2307972025        1.0442191937        6.0988771563
 H       -13.5937393625        0.1211030453        6.7835248919
 H       -16.3536504429        1.9511072759        4.2640991117
 H       -15.8109280074        2.6998313803        5.7442432708
 H       -15.9403892722        0.9435805204        5.6254891859
 H        -8.6874015507        7.8589417962        6.3645336442
 H        -8.2645591482        6.5207550586        5.2628503315
 H        -9.3494081256        6.2651583078        6.6559024397
 H       -11.6389754088        8.7085441658        6.1431699740
 H       -10.8163883149        9.2602321244        4.6432343312
 H       -10.1062583417        9.0562443528        6.2108401825
 H       -11.5342157988        8.8822916454       -0.1176848779
 H       -13.3072883110        8.5450992689       -0.0461371639
 H       -12.3489486262        8.6787645445       -1.6621841767
 H       -12.7582466864        6.4476010388       -2.3864518697
 H       -14.0264925131        6.7634837924       -1.2768940821
 H       -13.3339940294        5.1343155152       -1.3405095377
 H        -8.6037759698        6.1567797667       -5.6796347648
 H        -7.0411176687        5.4448839174       -6.2389640982
 H        -6.9996805527        6.4682581014       -4.9512278334
 H        -9.0516018090        2.5420542968       -5.3489022812
 H        -8.5643888130        3.6796430666       -6.4028331608
 H       -10.2160389513        3.9254912847       -5.3859582243
 H        -4.6577966548        3.1427661116       -8.6909071850
 H        -4.8888980144        3.7695656261       -7.1296456287
 H        -6.1779801602        2.8942599615       -7.8163672752
 H        -3.6660465381       -0.1226532916       -8.5058940905
 H        -5.2562142668        0.5356304856       -8.9499966902
 H        -5.0157903849       -0.5891080950       -7.6615788736
 Na      -11.4054548068        3.7873828948        1.5153862417
