117

 C        -2.1527405424        1.8164790899       -8.7056366704
 C        -2.7070671855        1.8556079924       -7.2638330862
 O        -2.1985063011        2.2605839017       -6.2845750704
 C        -4.3238435162        1.2401490801       -7.1770024226
 C        -4.6042405511        1.0425260107       -5.6626557462
 O        -4.8615809860        0.0121477329       -5.1622785258
 C        -4.8536121823        2.3533464041       -4.7846670746
 C        -6.3582378425        2.5985813285       -4.8768821198
 C        -7.0622237813        3.5122532149       -3.8240546448
 O        -6.6552238768        3.7815397410       -2.7316215261
 C        -8.1930361706        4.4617853925       -4.5356105805
 C        -9.0840694737        5.0567227350       -3.3588177376
 O       -10.1122569308        4.5087945695       -3.2833400999
 C        -8.5833513529        6.1645425203       -2.3405337538
 C        -9.7418183565        6.9469836695       -1.7709743951
 C       -10.6870609688        6.3203241693       -0.6954049448
 O       -10.3529353965        5.2922191721       -0.0799959483
 C       -12.0477444884        7.0281605901       -0.3340760613
 C       -12.6657156774        6.5585517678        1.1503858277
 O       -13.2717154757        5.5562950112        1.2604601543
 C       -12.3903878517        7.5087234706        2.3942729585
 C       -10.9423421001        8.1052679587        2.4912215442
 C       -10.1043091636        7.1703003607        3.5836785690
 O        -9.4774709856        6.1911418032        3.1760290800
 C       -10.3729475179        7.3281555324        5.0794189581
 C       -11.5179320110        6.3627700731        5.4983516012
 O       -12.5579209673        6.7760633388        6.0812779984
 C       -11.4779732318        4.8743038214        5.1125070027
 C       -12.8138695792        4.1975752410        5.3809426652
 C       -13.2722615413        3.1072769033        4.2892761409
 O       -13.1803517148        3.1746169531        3.0951383767
 C       -13.9239161446        1.8764397518        5.0232226359
 C       -13.7219287566        0.7513407277        3.8593845994
 O       -12.7230858347        0.0262890304        4.0218556223
 C       -14.6095815612        0.4997968737        2.6863545788
 C       -13.8015943763       -0.1451811681        1.5150824847
 C       -12.5670788418        0.9085113006        1.1464493525
 O       -12.7610439835        2.0383049093        0.7889104204
 C       -11.1654759990        0.2237848269        1.0889158246
 C        -9.8369084040        1.1678914440        0.7413954059
 O        -9.8837289596        2.3377628259        0.9653143896
 C        -8.5453723705        0.4555865355        0.2226984423
 C       -10.6887362063       -0.7202016884        2.2444217753
 C       -11.2902797161       -0.7667496311       -0.2036759357
 C       -13.2613647862        1.4341825425        6.3486757527
 C       -15.4339335838        2.0079075626        5.3213248218
 C        -9.1346079032        6.7786737406        5.8961240480
 C       -10.8088476621        8.7088770332        5.5114654726
 C       -12.1568105513        8.5507062312       -0.5263383357
 C       -12.9367090088        6.0289036231       -1.3110812725
 C        -7.5285387272        5.6479744483       -5.2820307153
 C        -9.0186309373        3.6384991763       -5.4402935828
 C        -5.2556024719        2.2545934254       -7.8678893482
 C        -4.4425038667       -0.0924643093       -8.0170435660
 H        -1.5647924004        0.9458618961       -8.8526818406
 H        -1.4539363827        2.6389171885       -9.1143451200
 H        -2.9876609729        1.7625157209       -9.4929922772
 H        -4.2416061626        3.2998053960       -4.7324466108
 H        -4.7872161390        1.8724164139       -3.7966163529
 H        -6.7160982823        1.5565384406       -4.8509445595
 H        -6.7118025250        3.0322239893       -5.9203102619
 H        -7.8356790378        6.8661888558       -2.6911061863
 H        -8.1006644549        5.5886028118       -1.5436369788
 H       -10.3405161645        7.4002273998       -2.5644637184
 H        -9.1965602005        7.7692291951       -1.2886249600
 H       -12.7370147381        6.9843799745        3.3277253769
 H       -12.9215603275        8.4431789421        2.1698374329
 H       -11.0100202535        9.2517634689        2.6676449470
 H       -10.6752593164        8.0817475562        1.3788296209
 H       -10.8169957366        4.2035214581        5.6649546668
 H       -11.1311651824        4.8754138638        4.1074664869
 H       -13.6753461096        4.9000066385        5.3948262691
 H       -12.8149273733        3.8334161160        6.4474386492
 H       -15.1451824567        1.3844840235        2.2941779605
 H       -15.3233010711       -0.2889297874        2.9638866705
 H       -14.3426163564       -0.3882083215        0.6068877623
 H       -13.3202745094       -1.0241140124        1.7850032362
 H        -8.0911332571        1.1355042631       -0.4805123161
 H        -8.7738588360       -0.4898926216       -0.1035072214
 H        -7.9599058385        0.5285173240        1.1045396613
 H       -10.5578415653       -0.1739973062        3.1407855677
 H        -9.7939340993       -1.2800537382        1.9720590438
 H       -11.3340178496       -1.5741505058        2.4037649096
 H       -11.6414813453       -1.7522225698        0.1796730521
 H       -10.3133646050       -0.8880162330       -0.4839938220
 H       -11.9841799176       -0.5694224062       -1.0212716839
 H       -13.8466706886        1.8397134077        7.2201935208
 H       -12.1796127065        1.5105291657        6.4589932262
 H       -13.4077740902        0.4101814667        6.4410446820
 H       -15.8733382786        2.1736438117        4.3365024251
 H       -15.7336207257        2.9057536229        5.7997340454
 H       -15.8415076055        1.0653954366        5.8438568515
 H        -8.2330644994        7.0014672204        5.3361340217
 H        -9.2439694453        5.7202237014        6.0540763728
 H        -9.1679275851        7.2564208349        6.9233855325
 H       -10.1851067176        8.8973666715        6.3814618377
 H       -11.8909219667        8.6163614858        5.7204301400
 H       -10.6238676216        9.6569065444        4.8691075053
 H       -11.3487553760        9.0676759649        0.0038325295
 H       -13.1884525019        8.7336328958       -0.2224312827
 H       -11.9234994216        8.8488012026       -1.4945899084
 H       -12.5616863629        6.0714673458       -2.3744694747
 H       -14.0013572313        6.2099956222       -1.3347161206
 H       -12.8578305478        5.0276583931       -0.9553749094
 H        -8.1241786977        6.0988166201       -6.0735270198
 H        -6.6043148258        5.3872923265       -5.7924075730
 H        -7.2420694627        6.3985145129       -4.4593414853
 H        -9.3889982442        2.8089401155       -4.8428046842
 H        -8.4768942695        3.0685330098       -6.2493611485
 H        -9.8942313162        4.2130410650       -5.6532834334
 H        -5.0820041105        2.3914597372       -8.9490533199
 H        -5.1304799518        3.3103273347       -7.3128358346
 H        -6.3369391359        1.9709252175       -7.8581362129
 H        -3.6523406716       -0.8022600332       -7.9496666729
 H        -4.6927282357        0.1133552226       -9.0778001890
 H        -5.3167498284       -0.7260850674       -7.7569050196
 Na      -11.5094406926        3.9642205590        1.3709582521
