117

 C        -2.1459072800        1.6343616545       -8.6126488244
 C        -2.8901715818        1.6743360112       -7.3435601419
 O        -2.2664015365        2.1888334716       -6.3999617468
 C        -4.2358279171        1.1372623813       -7.1684192580
 C        -4.6871874902        1.0099958306       -5.5667679104
 O        -4.6865192702       -0.1060585846       -5.1673239083
 C        -4.8987200985        2.2243447798       -4.7754091286
 C        -6.3992672210        2.5746032504       -4.8170699109
 C        -6.9533136575        3.7060566991       -3.8412441413
 O        -6.6730876106        3.5996444207       -2.6619714107
 C        -8.1733599785        4.5156942227       -4.4321445176
 C        -9.1762633837        5.0798023768       -3.3392390105
 O       -10.2736380617        4.4822669388       -3.2026758482
 C        -8.6931488127        6.1644229186       -2.4292242877
 C        -9.7368213092        7.0836431426       -1.6607906447
 C       -10.6427457191        6.3366890013       -0.5686041465
 O       -10.3013082606        5.2378869101       -0.1697675796
 C       -12.0615668914        6.9351176321       -0.3502344140
 C       -12.4504178110        6.5931530047        1.0373081355
 O       -12.9701879719        5.5471820749        1.3221035324
 C       -12.4574463191        7.6186019294        2.2203654173
 C       -11.0676571742        8.0832366428        2.6977432183
 C       -10.2602172792        7.0730605675        3.4831077602
 O        -9.4659830383        6.3014116316        2.9656264840
 C       -10.3983622920        7.3206362080        5.1201701967
 C       -11.6229014963        6.4231776395        5.4532229061
 O       -12.4666297259        6.8262735482        6.2203237574
 C       -11.5507009086        4.9023590963        5.0288392386
 C       -12.9365233051        4.3278586890        5.3438441096
 C       -13.2497190385        3.1796524014        4.4265595348
 O       -13.1059799919        3.3719296937        3.2194858198
 C       -13.9078818774        1.8079468910        4.9707495846
 C       -13.7340932007        0.6697309433        3.9980732558
 O       -12.8293951822       -0.1241354069        4.0577441758
 C       -14.6187484695        0.6747203232        2.7528226496
 C       -13.7515017474       -0.0364418973        1.6605358914
 C       -12.6090546489        0.7815384147        1.0664133310
 O       -12.8503842272        1.8862253748        0.6449985110
 C       -11.0838786214        0.1319101679        0.9270845305
 C        -9.9374529245        1.2228450303        0.6663326201
 O        -9.8989340121        2.4146095590        0.9390656118
 C        -8.6155325928        0.5367812842        0.2604305944
 C       -10.7065996640       -0.4472461415        2.2380206688
 C       -11.2325906246       -0.9231524723       -0.2047167620
 C       -13.2444949039        1.3940793645        6.3717469844
 C       -15.3879551231        2.2024012142        5.2422215471
 C        -9.0891937027        6.8381261221        5.8814940401
 C       -10.6951292290        8.7757280761        5.5376518496
 C       -12.0761401915        8.4272777006       -0.7064743745
 C       -12.9640086073        6.2032349357       -1.2741577213
 C        -7.3886307078        5.7013234811       -5.2699170006
 C        -9.1134779305        3.6323296819       -5.4446238569
 C        -5.1917949876        2.0457540503       -7.9814374449
 C        -4.2042003043       -0.3086563269       -7.8079532703
 H        -1.4756997681        0.7553049849       -8.7429191798
 H        -1.4183890674        2.4786246569       -8.8027832303
 H        -2.8131735896        1.7030104390       -9.4935354182
 H        -4.4329470760        3.0276280530       -5.3741216743
 H        -4.3970003811        2.2390026516       -3.7601361939
 H        -7.0501309518        1.6603894419       -4.4390427298
 H        -6.6491612498        2.7245615403       -5.8721494601
 H        -8.1247922028        6.8192396829       -3.1262773638
 H        -7.9241127159        5.7139186630       -1.7904790092
 H       -10.4044465273        7.5488861244       -2.4342376042
 H        -9.0767509925        7.8982377292       -1.2826561621
 H       -12.9294243590        7.0012671679        3.0174324437
 H       -12.9723613745        8.5636864968        1.9935274161
 H       -11.1962306057        9.0544946903        3.0913245872
 H       -10.5706485416        8.3085767958        1.6783064703
 H       -10.8352056627        4.3164402811        5.6439910698
 H       -11.2223120559        4.8357332861        3.9903508620
 H       -13.7203451189        5.1337858149        5.1753600540
 H       -13.0950543186        4.0778009481        6.4084664073
 H       -15.0481915199        1.6076410814        2.4647098899
 H       -15.3360026693       -0.0243091056        2.8247505957
 H       -14.3020889371       -0.2439056820        0.7965367870
 H       -13.4120779584       -1.0817365114        2.0319164647
 H        -8.3359164498        1.2348520909       -0.5399107846
 H        -8.8374097958       -0.4887288764       -0.1234447105
 H        -7.8946010508        0.7039125617        1.0521443662
 H       -10.7184476428        0.4186701434        2.9257487466
 H        -9.8319801864       -1.0914943301        2.3287209124
 H       -11.4420946001       -1.3248110170        2.5118249559
 H       -11.6880694193       -1.9242481418        0.1654147787
 H       -10.3183281502       -1.0852448705       -0.7028113560
 H       -11.9666837977       -0.5501202632       -0.9437096445
 H       -13.7400391235        1.7966068075        7.1947541873
 H       -12.2258688215        1.4757887611        6.3386109999
 H       -13.3793205895        0.2692033195        6.5685478312
 H       -15.9088928594        2.6985966683        4.3322949471
 H       -15.4812113092        3.0595108881        5.9766854120
 H       -15.8953339978        1.3259050203        5.6587596030
 H        -8.3358593952        6.7036661640        5.1781354676
 H        -9.3673350258        5.8582452883        6.3795129229
 H        -8.8293357284        7.5314888649        6.6888875569
 H        -9.7501442348        9.2602120770        5.8126837904
 H       -11.5534462034        8.7613934714        6.2824505946
 H       -11.0780548446        9.4305415863        4.7054800874
 H       -11.3352170009        8.9119369985       -0.1163781090
 H       -13.0973410048        8.7955068781       -0.7313297936
 H       -11.5817286667        8.5944953181       -1.6401399432
 H       -12.8001617409        6.4122223459       -2.2596619121
 H       -14.0438936407        6.4912707189       -1.0222879271
 H       -12.9654544841        5.1173666718       -1.0792859207
 H        -8.0341996178        6.2394803106       -6.0865169061
 H        -6.7243444644        5.1605215379       -5.9642089569
 H        -6.8405461930        6.4012553888       -4.6645108282
 H        -9.6285015518        2.9772811564       -4.8394697865
 H        -8.6362784920        3.0327393513       -6.1797970377
 H        -9.8722383860        4.3871249819       -5.7590536232
 H        -5.0029311933        2.1171207118       -9.0496315854
 H        -5.1511440828        3.0396811913       -7.5246604080
 H        -6.2665413037        1.6917974773       -8.0345356760
 H        -3.6849257826       -1.0761425042       -7.2887906578
 H        -4.0124115173       -0.3845452261       -8.8656346631
 H        -5.2486213958       -0.6559229391       -7.8364686477
 Na      -11.6197929665        4.0376948372        1.3683141372
