117

 C        -2.0316344047        1.4548015185       -8.7057551383
 C        -2.7938567049        1.6183170606       -7.2808869705
 O        -2.3203418063        2.2046704892       -6.3500259978
 C        -4.2646386365        0.8867544751       -7.2123018894
 C        -4.5980097358        0.8113103821       -5.7221550504
 O        -4.5700117101       -0.2218080889       -5.0422754024
 C        -4.9404898022        2.2728195188       -4.8519601350
 C        -6.4913505475        2.4791111508       -4.8121620178
 C        -7.0900798687        3.4976476773       -3.7984868530
 O        -6.7362995089        3.6672283874       -2.6558827718
 C        -8.1984028522        4.5047976286       -4.3805667748
 C        -9.2152524401        5.0583125233       -3.2855607558
 O       -10.3735685387        4.6025230335       -3.0750515775
 C        -8.6151982312        6.2410065021       -2.4301704456
 C        -9.6927674452        7.0976904535       -1.6480299606
 C       -10.5216454860        6.1608459380       -0.7632641171
 O       -10.1570518260        5.2136554271       -0.1893074015
 C       -11.9878162486        6.8923506091       -0.4318331287
 C       -12.4377771087        6.6865652157        1.0847979915
 O       -12.8462938034        5.5195722536        1.3936529658
 C       -12.5682180830        7.8913589078        2.0758917247
 C       -11.0587139556        8.2182699650        2.6191459938
 C       -10.2875571655        7.2894765085        3.4561045554
 O        -9.5938541358        6.4383342165        2.9721262996
 C       -10.3340030548        7.3546766934        5.0794228105
 C       -11.5963014832        6.3961431700        5.6547678600
 O       -12.4376356467        6.8908674261        6.2888774326
 C       -11.7044012991        5.0673274241        5.0988538779
 C       -13.0482464821        4.4005125829        5.4369605495
 C       -13.2460831843        3.1948779343        4.5690160318
 O       -13.0275922642        3.3035885831        3.3328179375
 C       -13.9263293576        1.8653058921        4.9960802312
 C       -13.6732097670        0.6606485200        4.0166999747
 O       -12.9820989242       -0.2554952360        4.3847769514
 C       -14.4635179431        0.7918588708        2.6520765832
 C       -13.8055646683       -0.1202299692        1.5580759532
 C       -12.6159242483        0.7912309018        0.9501224151
 O       -12.8420438813        1.9202343898        0.4909118330
 C       -11.1464443135        0.1621254680        0.8430749477
 C       -10.0471142395        1.1922141913        0.5277560938
 O       -10.1672340980        2.3501697864        0.9420477446
 C        -8.4875176901        0.7038590897        0.2140126640
 C       -10.7091436184       -0.2824720595        2.3232806429
 C       -11.2855167292       -0.9941692141       -0.1845653629
 C       -13.1992310754        1.4449576255        6.3641733477
 C       -15.3924523647        2.3911121757        5.1840305832
 C        -9.0579300691        6.7944174414        5.7224348107
 C       -10.4837571233        8.8355548407        5.5985951711
 C       -12.0843643352        8.5124072458       -0.8013780532
 C       -13.0996462530        6.3008857688       -1.4241153341
 C        -7.4339582656        5.5920378086       -5.1995584388
 C        -9.0539612819        3.8131504720       -5.4383054413
 C        -5.2307403797        1.7785333055       -8.0302273252
 C        -4.1273741050       -0.5643447033       -7.6005242609
 H        -1.4245858118        0.4782920125       -8.8399294795
 H        -1.2814868554        2.1089992968       -8.9366725588
 H        -2.7035775833        1.5490668216       -9.5162640503
 H        -4.4552288207        3.1919546807       -5.2236485559
 H        -4.4772719290        2.1239714206       -3.8258738933
 H        -7.0207931124        1.5193453559       -4.5350500730
 H        -6.7441215382        2.6996764163       -5.7912092133
 H        -8.0524104871        6.8813168881       -3.1601334129
 H        -7.8338972965        5.8365217994       -1.7457781536
 H       -10.3890627347        7.6588146590       -2.3053653588
 H        -9.1947421029        7.8615290292       -0.9868485269
 H       -13.0488929922        7.5328019841        2.9501378614
 H       -12.9574938291        8.8349922564        1.6823142150
 H       -11.2502682988        9.1119402648        3.1350113698
 H       -10.4695878915        8.4703695859        1.7944643483
 H       -10.8190108942        4.4579856717        5.3356053081
 H       -11.6755957657        5.2730761452        3.9771060296
 H       -13.7963959241        5.1875220578        5.2638302029
 H       -13.2876391450        4.0626078047        6.4215011859
 H       -14.2301521498        1.7724701941        2.2886866860
 H       -15.5665033939        0.6787670841        2.5598598733
 H       -14.4004248877       -0.2460198719        0.6070482774
 H       -13.4943709767       -1.1655164287        1.8911334508
 H        -8.2358034356        1.1990850683       -0.7556710979
 H        -8.6283530972       -0.4269273859        0.1536683944
 H        -7.8689564567        1.2158402192        1.0097578912
 H       -10.6369469803        0.7133547220        2.8974755843
 H        -9.6808449468       -0.7850853833        2.2298289375
 H       -11.1222618806       -1.1918610227        2.7786054623
 H       -11.8290280966       -1.8208597369        0.1890410785
 H       -10.2126882965       -1.3128723593       -0.6639261472
 H       -11.8647017129       -0.5750919967       -1.0368405593
 H       -13.4546242481        1.9846660724        7.2362485706
 H       -12.1718696275        1.3257214680        6.0317418239
 H       -13.4186994960        0.4252190626        6.7400622809
 H       -15.7354000177        3.0276649136        4.3168426323
 H       -15.5518969536        3.1295482226        6.0489458944
 H       -15.9759661851        1.5101982771        5.4369092468
 H        -8.3726942817        6.3410190628        4.9671886924
 H        -9.3913946410        6.0682789394        6.4639999479
 H        -8.6030373963        7.5668703300        6.2460392054
 H        -9.7987775064        9.5087040013        5.0409283926
 H       -10.4754509237        8.8215290496        6.7164296945
 H       -11.4392167957        9.1073626474        5.3567493373
 H       -11.3078362492        9.0826389435       -0.3583810118
 H       -13.1130509418        8.8066231331       -0.6716359617
 H       -11.8060925921        8.7485804437       -1.8699226759
 H       -12.9992063163        6.6907786222       -2.4461509480
 H       -14.0852457897        6.6031969026       -1.0749351882
 H       -13.1754046219        5.1964897217       -1.4147792229
 H        -8.1318313101        6.3218764141       -5.5960976035
 H        -7.1545390693        5.1196904394       -6.1893229402
 H        -6.6576026056        6.1078633590       -4.6659031473
 H        -9.5784926516        2.9283784303       -4.8854853575
 H        -8.4179199144        3.4285787241       -6.1747551563
 H        -9.7376835331        4.5178469805       -5.8818381424
 H        -4.9159134626        1.6898961340       -9.0731632349
 H        -5.2058779132        2.7296896898       -7.7015504439
 H        -6.2167428563        1.4166018852       -8.1991980841
 H        -3.8177363053       -1.1201655463       -6.6831118772
 H        -3.4401569058       -0.8463093920       -8.3707270199
 H        -4.9590388556       -1.0954541545       -7.9918714935
 Na      -11.6306553344        3.8055954878        1.3362714063
