117

 C       -13.5147315748        3.3881611269      -10.5547121716
 C       -12.5747754483        3.2419786415       -9.3714026012
 O       -11.9958772284        4.1328341893       -8.7956655856
 C       -12.0225858747        1.6943302370       -9.1112954602
 C       -11.5362604049        1.4866269145       -7.6696912171
 O       -11.6416496294        0.4177161296       -7.0628693893
 C       -10.6122205671        2.6186934060       -7.0350065140
 C        -9.5080825637        2.0872837678       -6.1625521624
 C        -9.6755521782        2.3597138888       -4.6378288268
 O       -10.7254776283        2.8117087229       -4.1922485051
 C        -8.5708123654        2.0829711090       -3.5766595311
 C        -8.1987789275        3.4984382164       -3.0925710745
 O        -7.2525670331        4.0448238077       -3.6155946721
 C        -9.1307200739        4.1233296701       -1.9959333640
 C        -8.7226902540        5.6109977512       -1.6895599015
 C        -8.2791136454        5.7672830663       -0.2351518556
 O        -8.2903783809        4.8130602100        0.5085849354
 C        -7.8201297986        7.2673323851        0.1241235670
 C        -8.9161727518        7.9760001681        1.0904754975
 O       -10.0695273768        7.5654713916        0.8835781939
 C        -8.5724254461        9.2034631647        2.0469934493
 C        -9.0901595613        8.9442015663        3.4532318828
 C        -9.2667272228        7.4511961305        3.9034440620
 O        -8.3945664320        6.6534022615        3.6825475715
 C       -10.5062581806        7.0324192068        4.7707418877
 C       -10.5388033757        5.4546956121        5.0189705735
 O       -10.0635443551        4.7310374122        4.1549225935
 C       -11.3434838384        4.7682583141        6.1301599319
 C       -11.5720961995        3.2910182941        5.7892965921
 C       -12.5791257091        2.7207842560        4.7431907127
 O       -13.1794513436        3.3918159545        3.9534075192
 C       -12.7116590012        1.1203579947        4.6850335759
 C       -11.3344033830        0.7313424624        3.8987114648
 O       -10.3556733046        0.5348562610        4.6886428965
 C       -11.0982567269        0.6170892154        2.4358310646
 C        -9.5954659653        0.2392418073        2.1625636495
 C        -8.7364110356        1.4809916548        2.3026993044
 O        -9.2791607040        2.5221028211        2.5102388936
 C        -7.1800236627        1.2866186467        2.2045299750
 C        -6.4475311856        2.1572552525        3.4746887841
 O        -6.2291159835        3.3271600980        3.3212055944
 C        -6.0834487107        1.4138439821        4.7041213006
 C        -6.7277200976       -0.1684470263        2.3279789800
 C        -6.6158827627        1.9257029144        0.9128954848
 C       -12.7811966509        0.4201976228        5.9939160829
 C       -13.9401237630        0.7581142853        3.8369425185
 C       -10.5164458903        7.8405836784        6.1144191592
 C       -11.8091647142        7.5418306094        4.0532240965
 C        -6.3017605085        7.1999495011        0.6524398260
 C        -7.7188807041        8.1413141767       -1.1772211826
 C        -9.1952829425        1.2196386460       -2.4298469753
 C        -7.3006544714        1.3617039671       -4.1685033870
 C       -13.1365103385        0.6181481713       -9.4320994925
 C       -10.7739841194        1.5034109127       -9.9851344057
 H       -13.4804142719        4.3006127838      -11.1489955835
 H       -14.4637532347        3.6907928606      -10.1284923512
 H       -13.6095924007        2.6174036977      -11.3081532269
 H       -11.2954433327        3.3450414201       -6.4416595191
 H       -10.2272063504        3.2950869957       -7.8290164622
 H        -8.5600158295        2.5953945235       -6.4040966830
 H        -9.2395037284        1.0167209585       -6.2620637431
 H        -9.0397321118        3.5242403671       -1.1035432094
 H       -10.1530951017        4.0039235829       -2.3305487806
 H        -9.5378888769        6.2125106961       -2.0117656730
 H        -7.8282246158        5.8622691112       -2.3067531236
 H        -8.9056446443       10.2669920835        1.7607562862
 H        -7.5127415795        9.3102794872        1.9799723824
 H       -10.0047167478        9.4900307303        3.5164403435
 H        -8.4917627258        9.4011187377        4.2472503290
 H       -12.2662037694        5.3336688242        6.3783393349
 H       -10.7295902153        4.8338601724        7.0556862619
 H       -11.7160634616        2.7001961760        6.7047258782
 H       -10.6018034653        2.9654458077        5.4262981693
 H       -11.5424475046        1.4181341564        1.7904122074
 H       -11.6925807270       -0.3124327283        2.1906436579
 H        -9.5276833290       -0.1691752691        1.1932492128
 H        -9.1820686565       -0.4670766415        2.8142828464
 H        -5.9951845330        2.1851057740        5.5386131221
 H        -5.0721622634        1.0518566903        4.6472698176
 H        -6.7915500043        0.6206182344        5.0365079611
 H        -7.0245855995       -0.7574976247        1.4479059603
 H        -7.0220879270       -0.6619201465        3.2871379085
 H        -5.5978799134       -0.1782451585        2.3267164304
 H        -6.5491602129        3.0016487167        1.2010185098
 H        -7.2595021367        1.6764525763        0.0327376772
 H        -5.6019623085        1.6253772880        0.7663795266
 H       -12.1173422383        0.9010924839        6.8262393208
 H       -12.4982535432       -0.6298502282        5.8792238161
 H       -13.8013332106        0.5767743560        6.3451824958
 H       -14.7110739428        1.5682933672        3.7780715433
 H       -14.4115063460       -0.1926026567        4.0326028620
 H       -13.7414623233        0.7470091507        2.7923214531
 H       -10.8535488986        8.8924017553        6.0472559422
 H        -9.4756822470        7.9879496729        6.5247320758
 H       -11.1438545241        7.3557631690        6.8462755186
 H       -11.9270639854        7.2623622627        3.0184184381
 H       -11.8811754483        8.6607976524        4.0369972900
 H       -12.6590489891        7.0942866265        4.6682584895
 H        -6.0902368874        8.1479961281        1.0881281242
 H        -5.6145014691        6.9364208689       -0.1168045411
 H        -6.0729943166        6.3914904857        1.3658192537
 H        -7.1814276109        7.7005962104       -1.9931957573
 H        -7.1372086935        9.0080625579       -0.9516712652
 H        -8.6815365591        8.4001856382       -1.5888128260
 H        -9.0232544617        0.2063434969       -2.7666024343
 H       -10.2736459794        1.4488278021       -2.4097117619
 H        -8.6827394005        1.2974524728       -1.4448524063
 H        -7.6430031639        0.6711476923       -4.8806114931
 H        -6.6978692540        0.9210588853       -3.4172385254
 H        -6.6179656414        2.0120921151       -4.6249252568
 H       -14.0647926702        1.0089143464       -9.1727297041
 H       -12.9203613045       -0.2743017413       -8.9133531597
 H       -13.0675640422        0.3777373797      -10.5241830525
 H       -10.1204545632        2.2654919824       -9.5755483142
 H       -10.9369293812        1.6903784056      -11.0297044591
 H       -10.4016670567        0.4976564159       -9.7670761055
 Na       -8.1235759612        4.5369412725        2.8240105476
