117

 C        -1.9145378834        0.6096277661       -8.0617644183
 C        -2.8910381623        1.1352066590       -7.0558109357
 O        -2.7947246975        2.2398433701       -6.5154885985
 C        -4.1857036330        0.2110047371       -6.7596330934
 C        -4.6793711951        0.6430836806       -5.3887739871
 O        -4.7687394642       -0.0775773396       -4.3873628143
 C        -5.3853388807        2.1074950226       -5.2840632925
 C        -6.9523695122        1.9996006225       -5.0344666540
 C        -7.3753188385        3.1724830758       -3.9707675490
 O        -6.7114513309        3.3125320701       -2.9228736719
 C        -8.3402502573        4.2422303410       -4.3817192951
 C        -9.0523993826        4.9185294966       -3.1713472706
 O       -10.2385069043        5.0007362438       -3.2778713852
 C        -8.2760347391        5.4505487103       -2.0303135254
 C        -9.0933738406        6.6228151319       -1.3081711914
 C       -10.5576135712        6.3196231840       -0.6347439821
 O       -10.5311655724        5.2128379878       -0.1314825896
 C       -11.8995994702        7.2199497715       -0.4489491921
 C       -12.3316366576        7.3201880740        1.1342722605
 O       -12.6314453680        6.3043340955        1.7826475005
 C       -12.4038997768        8.7413985187        1.7566841452
 C       -11.3447984445        9.0746020895        2.7888725339
 C       -10.5319078089        7.7446800361        3.2726195044
 O       -10.2511406791        6.8649167123        2.4756334724
 C       -10.3054211202        7.6133804310        4.8367816671
 C       -11.3904268342        6.7672067419        5.4451610123
 O       -12.1959914927        7.3504060831        6.2481125591
 C       -11.8198714019        5.4917334777        4.6948840814
 C       -13.0388305961        4.6325351974        5.3097567269
 C       -13.0423392248        3.1563319547        4.6137314042
 O       -12.2182529534        2.9104585856        3.8253108583
 C       -14.0423211554        2.1342043569        5.1147566839
 C       -14.0776499706        0.9224865370        4.0370070925
 O       -13.6958777890       -0.1709986502        4.3981629268
 C       -14.1706200685        1.1726548790        2.5369678605
 C       -13.5729084878        0.1224188564        1.6013985152
 C       -12.4374378641        0.6875127885        0.8205927497
 O       -12.5237521856        1.7122179040        0.1743156724
 C       -11.0863175802        0.0522374263        0.9578810823
 C        -9.9774433086        1.1038062114        0.4382847653
 O       -10.1290838060        2.2630212294        0.7297038024
 C        -8.7722148004        0.5462859001       -0.4894271225
 C       -10.6197436523       -0.1745070247        2.3708224360
 C       -11.3262482636       -1.2262362073        0.2137543349
 C       -13.4285223146        1.5415778658        6.3821833779
 C       -15.4238012339        2.7704060453        5.3263178742
 C        -8.9100109551        6.8963622003        4.9930603359
 C       -10.1571179680        9.0128832211        5.5587842613
 C       -11.7492144746        8.5293340751       -1.0750054498
 C       -13.0038026973        6.4263627210       -1.1574797147
 C        -7.3782555129        5.4272056481       -5.1472683966
 C        -9.2910268264        3.7445856368       -5.5101298202
 C        -5.1393969124        0.3065658451       -8.0373292310
 C        -3.6838186745       -1.2253336998       -6.6453964772
 H        -1.2933526225        0.0245872443       -7.5297229612
 H        -1.1488544981        1.2430388495       -8.5470073389
 H        -2.3892383643        0.0197257237       -8.8300413137
 H        -4.8492049913        2.8148975460       -5.9737091201
 H        -5.0437435363        2.4477045661       -4.3128535639
 H        -7.1073771748        1.2103498018       -4.4363822668
 H        -7.5296245530        1.9147622866       -5.9866213157
 H        -7.3241991682        5.7640042834       -2.5099224040
 H        -7.8507809825        4.6647888765       -1.3458928630
 H        -9.1148662965        7.5758004561       -1.8544433535
 H        -8.5067413050        6.8982790277       -0.3845912306
 H       -13.3773109263        8.7167635520        2.2462583239
 H       -12.5710581834        9.4488919951        0.9659633664
 H       -11.7664759578        9.5185899140        3.6518579419
 H       -10.6738261095        9.7587639418        2.4022438883
 H       -10.9656237577        4.7827584505        4.5296982241
 H       -12.1945950405        5.8840249616        3.6990685779
 H       -13.9942644941        4.9764166155        5.0087133470
 H       -13.0304150001        4.7133382451        6.4188166714
 H       -13.8646607008        2.2327475876        2.3397490501
 H       -15.3323654740        1.3204452771        2.4411251552
 H       -14.4679154833       -0.0861781254        0.8918579807
 H       -13.1529123918       -0.6457300426        2.1888543083
 H        -9.3029927181        0.1269535491       -1.4089765291
 H        -8.3823159465       -0.1493582895        0.2764976255
 H        -8.0816126198        1.4080123600       -0.5630496879
 H       -10.6962873145        0.6749890608        3.0734995221
 H        -9.4742626098       -0.1962649542        2.3837561292
 H       -10.8469123180       -1.2219012264        2.8276337432
 H       -11.6406320403       -1.8719796245        1.1114262849
 H       -10.5328364025       -1.6773738885       -0.2286903027
 H       -11.9920991188       -1.0762605231       -0.6809729257
 H       -13.8222066524        2.2259523126        7.2152534319
 H       -12.3264572962        1.5876598499        6.4748981946
 H       -13.7891042570        0.5850820309        6.6980740834
 H       -15.7653527484        3.2281327795        4.3567117342
 H       -15.3163659306        3.5554495572        6.1187957138
 H       -16.2099503982        2.0449783195        5.8129215980
 H        -8.9095364034        6.0668347090        4.3222073499
 H        -8.8035781105        6.5499960407        5.9881055722
 H        -8.0840156163        7.5865891415        4.6738895684
 H        -9.9492859549        8.9714883183        6.6191380424
 H       -10.9108773272        9.7233398617        5.4853805754
 H        -9.1254915738        9.2378395027        5.2011026171
 H       -10.8967591510        9.0240683734       -0.5399882493
 H       -12.6155905025        9.2355735806       -0.9243573686
 H       -11.6244017007        8.5182973889       -2.1304215692
 H       -12.7218896425        6.1432594925       -2.1950920731
 H       -13.9737413210        6.8763465252       -1.3137453354
 H       -13.1172969919        5.4714799724       -0.6324363274
 H        -8.1323899435        6.1209072581       -5.5327101759
 H        -6.6153104878        5.1107545093       -5.8783648417
 H        -6.9600211313        6.0804654076       -4.3174544952
 H        -9.8137535270        2.9999821061       -5.0121331907
 H        -8.5961880958        3.5088506375       -6.3866336366
 H        -9.8665989436        4.5755051783       -6.0123242726
 H        -4.6818371506       -0.1427497855       -8.8708144615
 H        -5.4417911192        1.3650339817       -8.2946827394
 H        -6.0622032388       -0.1946423903       -7.8359829365
 H        -2.6476455715       -1.3628974740       -6.4884354166
 H        -3.7041952112       -1.8259271983       -7.5616898319
 H        -4.2701320482       -1.8322929599       -5.9588976845
 Na      -11.9005686399        3.7775304721        0.9298393679
