117

 C        -1.7411434747        0.1984473059       -6.8298926783
 C        -3.2539123803        0.5123474500       -6.5406011760
 O        -3.7570991540        1.5764194164       -6.8952165907
 C        -4.1389183776       -0.6031601643       -5.7750880688
 C        -5.3886565690        0.0634066135       -5.0224873701
 O        -6.0176699448       -0.4563632948       -4.0952059289
 C        -5.9514912125        1.3640436649       -5.5643936442
 C        -7.4536537129        1.8027085005       -5.0414186711
 C        -7.6893315629        2.8359697927       -3.8979848094
 O        -7.1732150306        2.6952961269       -2.8517855031
 C        -8.3198522134        4.1845863404       -4.3052790666
 C        -8.7878652333        5.0684347928       -3.0416228771
 O       -10.0233454767        5.4159687379       -3.0372392152
 C        -7.8169168960        5.5226153697       -2.0109861407
 C        -8.6440127060        6.6284438961       -1.2389375433
 C       -10.0840167944        6.0845480449       -0.8399714529
 O       -10.1493375372        5.0342984275       -0.3332446493
 C       -11.2933770794        7.2069358119       -0.9161980188
 C       -12.0169269543        7.2215945721        0.4550473783
 O       -12.3828520917        6.1668237936        1.0288320527
 C       -12.4364901083        8.5934642986        1.1361424188
 C       -12.0701404606        8.5288472169        2.6320849520
 C       -10.6131037868        8.4438658583        2.7608928349
 O        -9.8549195565        8.7944487195        1.8710488977
 C        -9.8922930838        7.9012680945        4.1774496549
 C       -10.9436592207        6.8022417754        4.8607873817
 O       -11.8709664504        7.2310433107        5.4583683783
 C       -11.0020774787        5.1447087984        4.5869551707
 C       -12.3508518254        4.6124021407        5.1300296747
 C       -12.8005601410        3.4032702695        4.4025373924
 O       -12.2610291741        3.1050920423        3.3589672269
 C       -14.0662286044        2.5440856893        5.0686146963
 C       -14.1442057051        1.2240453488        4.1160531489
 O       -13.6438946364        0.2187497515        4.5784114124
 C       -14.8530923406        1.1474777305        2.6965280058
 C       -14.1154144515        0.1706961784        1.7564804953
 C       -12.8869359153        0.9959270078        1.3072700002
 O       -13.0918015735        2.1979886550        1.0961458967
 C       -11.4031398482        0.3012651482        1.1865158849
 C       -10.3247011741        1.2339972866        0.5716389348
 O        -9.9096678549        2.3187332340        0.9775201321
 C        -9.4564729743        0.5960973715       -0.5650770635
 C       -10.8118553116        0.0695754586        2.6459842397
 C       -11.6288540957       -0.9930088905        0.3362254901
 C       -13.7449141878        2.2037379810        6.5050230062
 C       -15.2705982072        3.5505570752        4.9043980565
 C        -8.4992761267        7.3226656996        3.9863848771
 C        -9.9638209238        9.2442380649        5.1079990896
 C       -10.9669688200        8.6247695612       -1.5075505173
 C       -12.3647073404        6.5421913334       -1.7740211113
 C        -7.0838860067        4.8967262876       -5.0566021377
 C        -9.6481931366        4.0278198993       -5.2632413065
 C        -4.8288029748       -1.5760401360       -6.9228299212
 C        -3.2260744231       -1.4864226683       -4.8969243988
 H        -1.2157149075       -0.4420911454       -5.9566828291
 H        -1.2572190030        1.1470413336       -6.8608495532
 H        -1.4194227252       -0.4270291069       -7.6853270307
 H        -6.0649713540        1.3355783985       -6.6507706770
 H        -5.1242458756        2.1494491126       -5.4507847793
 H        -7.9228421300        0.8361971901       -4.6203220599
 H        -8.0613935776        2.0608025997       -5.9163265597
 H        -6.9954517319        5.7290063425       -2.6622895921
 H        -7.4812868275        4.7003136653       -1.3781782633
 H        -9.0108758476        7.3417972341       -1.9771560230
 H        -8.1115323912        7.1322760307       -0.4057777826
 H       -13.5547256552        8.5851561928        1.0858936735
 H       -12.1992380981        9.6395211284        0.7048064490
 H       -12.6255542668        7.9203989390        3.2767072310
 H       -12.3798545172        9.5410475428        2.9979536224
 H       -10.1718745134        4.7832245293        5.1771908204
 H       -10.8716177909        4.8004134265        3.5693212021
 H       -13.0621987483        5.3891910417        4.8595051993
 H       -12.3368851352        4.4175087305        6.2490866816
 H       -14.6908777280        2.2032832526        2.3495250973
 H       -15.8597377863        1.1151219922        2.9215404546
 H       -14.7800711809        0.0218044293        0.8603823432
 H       -13.7875491285       -0.8661995796        2.1147362685
 H       -10.0131075331        0.4609532584       -1.4449824611
 H        -9.1016608487       -0.2930346739       -0.0173637121
 H        -8.6575810724        1.3057026606       -0.5869821671
 H       -10.5012202734        0.9323744625        3.2325551014
 H       -10.0584874172       -0.6243566732        2.4506922153
 H       -11.4698951358       -0.3263367077        3.4186561976
 H       -12.5346334430       -0.7902182805       -0.1954505421
 H       -11.8376591449       -1.9183588835        1.0698456740
 H       -11.0142814758       -1.3268934091       -0.4933674250
 H       -13.9210170241        3.0539412570        7.0537596873
 H       -12.7213832566        2.0696782116        6.6527797390
 H       -14.2399255202        1.2763986386        6.9372308842
 H       -15.1641164656        4.1810029623        3.9844127491
 H       -15.1857797730        4.2302960383        5.7328532331
 H       -16.1774131543        2.9955812454        4.8350368409
 H        -8.4171211146        6.3300570688        3.6563428403
 H        -8.0489721096        7.3216019239        5.0380490262
 H        -7.8565161440        8.0019197004        3.3734879330
 H       -10.5756368181        9.0387369363        5.9822437304
 H       -10.6771103246       10.0910874484        4.6483159114
 H        -8.9645248852        9.7304314489        5.3153581356
 H        -9.9495275990        9.0369155404       -1.1915732984
 H       -11.7679334384        9.3755506128       -1.2161815007
 H       -10.9946114887        8.5161867926       -2.5779133550
 H       -12.3102377427        6.5280857569       -2.8139626283
 H       -13.3821399682        6.8627356922       -1.4539803219
 H       -12.3534950410        5.4866305029       -1.5347793143
 H        -7.3425439235        6.0082046553       -5.1294116925
 H        -6.8795388311        4.5142626052       -6.0502167298
 H        -6.1991834917        4.7403230279       -4.5562769673
 H       -10.3735660649        3.2656735634       -4.9678851742
 H        -9.2858685956        3.7091143190       -6.1303609562
 H       -10.2057541971        4.9223924715       -5.1878310022
 H        -4.0206414503       -1.9330193384       -7.6202552211
 H        -5.6163128630       -1.0019541157       -7.4108769056
 H        -5.2093873012       -2.5604579514       -6.4041723950
 H        -2.6468876758       -0.9809144089       -4.1643379208
 H        -2.6248862021       -2.2511357143       -5.4568769019
 H        -3.8381047038       -2.1112309156       -4.2075947226
 Na      -11.5527212445        3.9927292423        1.2397592038
