117

 C        -1.9279851064        0.1009429116       -6.2585922255
 C        -3.4431569258        0.3511292792       -6.1808404611
 O        -3.9273473298        1.2290820350       -6.9403702403
 C        -4.3665838483       -0.6829679307       -5.3956462885
 C        -5.7683685046       -0.1478194002       -4.8569070108
 O        -6.4160522328       -0.7790309636       -3.9843008892
 C        -6.3502310233        1.0890367123       -5.5117532349
 C        -7.6835381095        1.4242699700       -4.8555708775
 C        -7.5635225154        2.6754339488       -3.9114546202
 O        -7.5701807228        2.5034858912       -2.7136682767
 C        -8.0450459051        4.1396616666       -4.4865132266
 C        -8.5188677075        5.0675543639       -3.3356454503
 O        -9.7196786177        5.0029870897       -3.1388433416
 C        -7.6345954140        5.7548927318       -2.3792425798
 C        -8.4685699040        6.7553526258       -1.4360155605
 C        -9.8417381803        6.2256016184       -0.8876067845
 O        -9.8091664912        5.1340372832       -0.2409754550
 C       -11.2044124748        7.1262061222       -1.1945268420
 C       -11.9126674425        7.1081613297        0.2218899249
 O       -12.2305069144        6.1894943778        0.9543452531
 C       -12.4125259167        8.4824531264        0.8909343278
 C       -12.1832958660        8.5430245439        2.3617149356
 C       -10.6398787471        8.4581883567        2.7185372418
 O        -9.8583311064        8.8152280983        1.9015986442
 C        -9.9641677559        7.9382909638        4.1995388056
 C       -11.0218210546        7.0226156321        4.9109148338
 O       -11.9580494866        7.4438616658        5.6590808056
 C       -11.0457981157        5.5216131483        4.7001076427
 C       -12.0438276722        4.7124664107        5.4680867304
 C       -12.5932662162        3.6542618657        4.4804870775
 O       -12.1696380597        3.5071877263        3.3996674497
 C       -13.9656581549        2.8748669682        5.0271425980
 C       -13.9292348196        1.5496269417        4.3127282981
 O       -13.1172838657        0.6880777409        4.5908676522
 C       -14.8963355161        1.3024795181        3.0617215147
 C       -14.1837661802        0.5440291432        1.8994710621
 C       -12.9892495331        1.0487119185        1.2096686541
 O       -13.0379955888        2.1396848228        0.6233814336
 C       -11.6360072065        0.2322850619        1.2910821824
 C       -10.4463765836        1.1664582582        0.7247212056
 O       -10.2389627655        2.2581929052        1.2273211980
 C        -9.5994661976        0.7478969363       -0.6073264503
 C       -11.1562293693       -0.1919233198        2.5890784643
 C       -11.9230985958       -1.0491320797        0.3495336812
 C       -13.6924770866        2.5169279417        6.5196379595
 C       -15.2335631354        3.6698044882        4.7491956084
 C        -8.8684540669        6.8987821496        3.7599039454
 C        -9.4252990704        9.2380845296        5.0464313766
 C       -11.0371564306        8.5385335215       -1.7515379063
 C       -12.0857897287        6.3768945837       -2.1702986939
 C        -6.8894552206        4.8494978730       -5.2890876941
 C        -9.2640841552        3.8834639003       -5.5014408005
 C        -4.6441262338       -1.8321900193       -6.6233102929
 C        -3.6226908222       -1.1639794708       -4.1377913699
 H        -1.5167366338        0.2796976978       -5.1865371627
 H        -1.5885379719        0.6888860475       -7.0197658646
 H        -1.5502180699       -0.9086647648       -6.3214532188
 H        -6.5559971567        0.9794053274       -6.6044457661
 H        -5.7214223349        1.9511188732       -5.4560672768
 H        -8.0071557552        0.6547243604       -4.2068438498
 H        -8.6196332884        1.6276624506       -5.4318164262
 H        -6.9142007570        6.5275687135       -2.6859362207
 H        -7.1010305907        4.8500113177       -2.0392291237
 H        -8.5502822289        7.5520951020       -2.1382930520
 H        -7.8170229128        7.1000001182       -0.6378064254
 H       -13.4737287232        8.4347005642        0.7685383451
 H       -12.0563527175        9.4590796661        0.4216916279
 H       -12.8199784488        7.7631758182        2.9123542237
 H       -12.6201266402        9.5612274592        2.6593814601
 H       -10.1345904402        5.1140054710        5.1393820542
 H       -11.0203985735        5.1612376458        3.6588491961
 H       -12.8820357515        5.3311559607        5.7811364422
 H       -11.5390837288        4.2492478334        6.3270043790
 H       -15.1007765246        2.2913109864        2.6908756449
 H       -15.8021976300        0.7697235130        3.1856694814
 H       -15.0430167584        0.4866141217        1.1148640690
 H       -14.1278883763       -0.5191169679        2.0157368030
 H       -10.0890199348       -0.0280736081       -1.1970004539
 H        -8.6608169751        0.3446354934       -0.2358042850
 H        -9.4724137230        1.6709246669       -1.1540874172
 H       -11.1313891110        0.6048629288        3.3399052931
 H       -10.2319523634       -0.6278574780        2.4840296850
 H       -11.7337490409       -0.9933871548        3.1432675874
 H       -11.4927530562       -1.0329925443       -0.6277442229
 H       -13.0461912445       -1.2300779580        0.1092134733
 H       -11.5333477943       -1.8796488162        0.8116169842
 H       -13.3494437482        3.3124658493        7.2048748683
 H       -13.0019735237        1.6585934161        6.5432094585
 H       -14.7487889782        2.1585366499        7.0303893881
 H       -15.3133964388        3.4767290035        3.6790188558
 H       -15.0662356116        4.7506168138        4.7315411854
 H       -16.1311980041        3.3400925875        5.3539898871
 H        -9.1605695040        6.2788475426        2.9976150888
 H        -8.5120909357        6.3016770546        4.5854055340
 H        -7.9664915934        7.4681916050        3.4030188218
 H        -8.4856983624        9.3022839591        5.4160968566
 H       -10.0012025731        9.3699246177        5.9435989541
 H        -9.5058832665        9.9510956581        4.2723100935
 H       -10.6412643463        9.2916007256       -1.0697574176
 H       -11.8730885579        8.7199731998       -2.3838378240
 H       -10.2832599772        8.4499263911       -2.4542484138
 H       -11.7203364343        6.2097599683       -3.1047331267
 H       -13.1137370835        6.7858928756       -2.2689854838
 H       -12.2933009664        5.3577215011       -1.7560286181
 H        -7.3443314908        5.7236869281       -5.8671068895
 H        -6.4272792338        4.2195879390       -6.0263883304
 H        -6.1981409463        5.2972461701       -4.6302986294
 H       -10.2019218217        3.4583404531       -5.1133864795
 H        -8.8859555398        3.2042984735       -6.2492592098
 H        -9.5736107131        4.9444437799       -5.8552772618
 H        -3.7411328975       -2.3200665286       -6.8292425226
 H        -5.1739745139       -1.2915196153       -7.3744874856
 H        -5.1625853775       -2.6908893892       -6.1461196150
 H        -3.3118193346       -0.3759099053       -3.5190698486
 H        -2.8367524141       -1.8316598317       -4.5236460711
 H        -4.1176814853       -1.8307415023       -3.4440207309
 Na      -11.4918262156        4.0105833162        0.9477048062
