117

 C        -2.0195557930        0.2348476279       -5.8446606896
 C        -3.5599812746        0.2419638936       -6.0159337912
 O        -4.1900919815        0.9829648124       -6.7513300673
 C        -4.3897582561       -0.7755800775       -5.1183829629
 C        -5.8686683735       -0.2919448214       -4.7749857607
 O        -6.5042947748       -0.9710099170       -4.0517952343
 C        -6.6157281755        0.8797490145       -5.4493935616
 C        -7.9687133607        1.3298220303       -4.6882893367
 C        -7.8864546821        2.7718177518       -3.9577351814
 O        -7.5974096598        2.7207825031       -2.7468056411
 C        -8.0549763976        4.0925918647       -4.6789145413
 C        -8.7187397721        4.9711211648       -3.4697420519
 O        -9.8912274020        4.8982175354       -3.1673652519
 C        -7.6957151896        5.6042383933       -2.4791726121
 C        -8.4112645914        6.7544346458       -1.7525097879
 C        -9.6342311517        6.3385192573       -0.9790948837
 O        -9.5860204381        5.3654852426       -0.2738656274
 C       -11.0759761306        7.1057597791       -1.1969062290
 C       -11.7962820473        7.3101812471        0.2834025969
 O       -12.2013789110        6.2200104842        0.7865328267
 C       -12.2286513810        8.5100470657        0.8899709043
 C       -12.1226150242        8.3745295602        2.4704229076
 C       -10.5946028857        8.3228852270        2.7386882531
 O        -9.8907738679        8.7969477554        1.8267618867
 C        -9.9476417295        7.9130948627        4.0165639657
 C       -11.0999171105        7.2013787740        4.8270445520
 O       -11.9030406175        7.8506863051        5.4525252223
 C       -10.9488663550        5.7284710115        4.7405300709
 C       -11.9471437967        4.9077093555        5.4936487779
 C       -12.6628995009        3.8462978666        4.6291383478
 O       -12.4832531225        3.7504745506        3.3825897834
 C       -13.7884831418        2.9966446412        5.1743281840
 C       -13.6853493402        1.6425568286        4.2805950256
 O       -12.9516261188        0.7355072336        4.5253087750
 C       -14.4701242199        1.6938704450        2.9702174357
 C       -14.2525446382        0.4755393878        2.0385027801
 C       -13.1284596565        0.9703880746        1.0175342316
 O       -13.2620217760        2.0469142557        0.4503318470
 C       -11.8927082678        0.1922747149        1.0226162388
 C       -10.5555870744        1.0651594815        0.6359965832
 O       -10.2587718593        2.0046844299        1.3735282518
 C        -9.5746871481        0.8183120935       -0.4670465211
 C       -11.3188358840       -0.2180939012        2.5314089339
 C       -12.0746258035       -1.1352715217        0.2375797372
 C       -13.9546322825        2.8076568264        6.7407923972
 C       -15.1176700922        3.9676680892        4.7721481203
 C        -8.6446209643        7.1023636064        3.4824845618
 C        -9.4527340189        9.1619797386        4.7708750444
 C       -10.7669045591        8.4373009950       -2.0293144602
 C       -12.0485838789        6.0609412696       -1.8670842760
 C        -6.5769489284        4.3329210255       -5.0763350690
 C        -9.0033550809        4.1848024708       -5.8282039372
 C        -4.5946725108       -2.1796240281       -6.0778104880
 C        -3.7013391636       -1.3203150864       -3.7602244079
 H        -1.6151093209        1.0308044612       -5.3185412264
 H        -1.5444388853        0.0226836129       -6.8936481105
 H        -1.6867207292       -0.5619494953       -5.1528516991
 H        -6.8039607958        0.8019818974       -6.5153484474
 H        -5.9760102548        1.7828016201       -5.3309022944
 H        -8.1642849438        0.7109143081       -3.7424795779
 H        -8.9748995547        1.2670954457       -5.1062442833
 H        -6.7839296762        6.0691719642       -2.8427183562
 H        -7.4022480795        4.8791585913       -1.7086984488
 H        -8.5871410691        7.5383936073       -2.5234305458
 H        -7.7692802021        7.1988767115       -0.9835773779
 H       -13.2865967979        8.6911382706        0.4612646907
 H       -11.5757848805        9.2601923452        0.5036308280
 H       -12.7111064615        7.4937632121        2.6796511839
 H       -12.4627124902        9.1915810497        3.0595985906
 H        -9.9392629174        5.4046934752        5.0743229459
 H       -10.8764904428        5.4556148761        3.7044695386
 H       -12.6970564471        5.6107806038        5.9413783710
 H       -11.4588111294        4.2949809059        6.2671785547
 H       -14.4034561794        2.6478131244        2.4744022097
 H       -15.5388644833        1.5415442163        3.3806589394
 H       -15.0995229083        0.1524051335        1.4726995544
 H       -14.0667705982       -0.4862259462        2.5838932885
 H       -10.1148521303        0.1231475459       -1.1916043272
 H        -8.6428604301        0.3838317329       -0.1301195690
 H        -9.4559798190        1.8071239121       -0.9249948988
 H       -10.9913646748        0.6994037094        3.0185533054
 H       -10.3297040819       -0.7450902244        2.4139510244
 H       -11.7883691642       -0.8992120925        3.2254851012
 H       -11.5977876612       -1.0227296864       -0.8222444538
 H       -13.0218870731       -1.3115589021       -0.1076113563
 H       -11.6183786775       -2.0227459341        0.7948391749
 H       -13.9984330471        3.7416167467        7.2942961218
 H       -13.0890265258        2.2449574852        6.9962137263
 H       -14.8178226858        2.3789331163        7.0430301068
 H       -14.9394550548        4.3997530286        3.8265461440
 H       -15.2825931162        4.7314320273        5.4973748471
 H       -15.9205110241        3.2607826706        4.8805929255
 H        -9.0533985402        6.1224799859        3.0116518170
 H        -7.8645818491        6.8705974998        4.1937417782
 H        -8.1920242364        7.6443055912        2.6933695597
 H        -8.2849671657        9.3515078389        4.6973529755
 H        -9.6314800415        8.8940323454        5.8021734761
 H        -9.7615675730       10.1252020065        4.3226078976
 H        -9.7447172744        8.6010052389       -1.8024624905
 H       -11.4065815666        9.1934279139       -1.5999971222
 H       -10.8940441954        8.5982037214       -3.1541771196
 H       -11.9083969993        6.0227528111       -2.9737621277
 H       -13.0658364487        6.3272820137       -1.7656124390
 H       -12.0504619018        5.0222390659       -1.5611431978
 H        -6.5453548575        5.1663098882       -5.6660152678
 H        -6.3931688856        3.5499533762       -5.7873059839
 H        -5.8662166111        4.5399917287       -4.2133719574
 H        -9.9638457828        3.9370433539       -5.4604106180
 H        -8.8077112184        3.5682748268       -6.7782863318
 H        -8.9648653913        5.1932601793       -6.1589362735
 H        -3.7509903442       -2.8564583162       -5.7705154844
 H        -4.5620362392       -1.7201161397       -7.1269073893
 H        -5.4308299876       -2.8252806052       -5.8515587318
 H        -3.4293047584       -0.4719563960       -3.0726369068
 H        -2.9688614547       -2.0793555514       -3.9216499696
 H        -4.4625673985       -1.8305619225       -3.1748940052
 Na      -11.3471779386        3.8805981362        0.8643870867
