117

 C        -2.1707372554        0.3251364701       -5.4986424534
 C        -3.7632534778        0.1241045447       -5.7842719834
 O        -4.3397553090        0.7960056303       -6.6064860492
 C        -4.5191560182       -1.0230539904       -4.8834280635
 C        -6.0876308370       -0.6252579825       -4.6460156484
 O        -6.7725402446       -1.2480052617       -3.8763582056
 C        -6.6363313452        0.7277173705       -5.1978517302
 C        -8.0463825092        1.1311834954       -4.7502657472
 C        -7.8847481509        2.4551499929       -3.9803619765
 O        -7.6673931370        2.4200462874       -2.8004724444
 C        -7.9146345623        3.8982084709       -4.7223272742
 C        -8.6117357378        4.8524258300       -3.6004134608
 O        -9.8425121458        5.0098966002       -3.5671380284
 C        -7.7253151988        5.5277761051       -2.5099974808
 C        -8.5023246998        6.7129521158       -1.8285689516
 C        -9.7597578901        6.2943616759       -0.9717020601
 O        -9.5677105892        5.3464180154       -0.2227440447
 C       -11.1353045296        7.0089483072       -1.1412889463
 C       -11.7436014599        7.0152677647        0.1933350185
 O       -11.9049822570        6.0753416133        0.8891013836
 C       -12.3088877247        8.4206057659        0.8182073376
 C       -11.8320718297        8.5940069019        2.2725974471
 C       -10.3080681300        8.6400222982        2.3669564918
 O        -9.5652937513        8.9299877857        1.4781009810
 C        -9.7754293922        8.0900423533        3.7864810687
 C       -10.8143638293        7.2665630511        4.6861997177
 O       -11.7430953461        7.8003881236        5.2601336583
 C       -10.6627725330        5.6718538925        4.8565903506
 C       -11.9669936466        5.0515866411        5.5818844670
 C       -12.7424264129        4.1635637808        4.5579361973
 O       -12.3959280359        4.0693326513        3.4040440765
 C       -13.9531059390        3.3178645911        5.1038829625
 C       -13.8699386650        1.9400083733        4.2727737101
 O       -13.2630220651        1.0135165684        4.8003854343
 C       -14.6335464903        1.7502190210        3.0311489034
 C       -14.1634080979        0.7322895782        2.0170768256
 C       -13.0325335472        1.0208981591        1.1427066578
 O       -12.8999369010        2.0245561779        0.4428104917
 C       -11.7878662521        0.0599512123        1.0914271691
 C       -10.5319479333        0.9575808800        0.6519452009
 O       -10.3439742819        2.0407601488        1.1660192706
 C        -9.6623149347        0.6898785233       -0.6509373931
 C       -11.4450912738       -0.6782402224        2.3974456778
 C       -11.9315608326       -1.0676617079       -0.0415333394
 C       -13.7251836711        2.8310182149        6.5870710250
 C       -15.3768758068        4.0328149743        4.8905148621
 C        -8.5195672565        7.2636562406        3.6434032017
 C        -9.4395439767        9.3596429010        4.6569398510
 C       -11.1995881804        8.4560913309       -1.7916212110
 C       -11.9997725734        6.0816451626       -2.1281174007
 C        -6.4897268681        4.4814704519       -4.9090683986
 C        -8.7601676713        4.1203289864       -5.9374539274
 C        -4.6567615742       -2.2878931976       -5.6921317557
 C        -3.9174092822       -1.1766892161       -3.4579835269
 H        -1.8368110994        1.3578517980       -5.2241873619
 H        -1.6435632057       -0.1071504334       -6.2817738362
 H        -1.9070429729       -0.1798986295       -4.6095895729
 H        -6.6491090940        0.6254269313       -6.2937178567
 H        -5.9850780454        1.5753216341       -4.9720819663
 H        -8.5278326705        0.4470554836       -4.1180496635
 H        -8.7722726402        1.2838924685       -5.5392709616
 H        -6.7840719997        5.9000889592       -2.9417949237
 H        -7.4423584798        4.9761467479       -1.5924436303
 H        -8.9140950968        7.2686463109       -2.6563841782
 H        -7.9620203636        7.4437252781       -1.1934565425
 H       -13.3379873025        8.3279530220        0.8674298864
 H       -12.0542198142        9.4082854149        0.4149078036
 H       -12.2378161066        7.7945239748        2.8762082725
 H       -12.1878091278        9.6352806474        2.5577900639
 H        -9.8138828127        5.3408265289        5.4778141466
 H       -10.3625963897        5.2022518659        3.8726723300
 H       -12.6771657070        5.8487379888        5.7194341985
 H       -11.8597960787        4.5442047612        6.5467367963
 H       -14.5767968653        2.7566894831        2.4677610744
 H       -15.6587902836        1.5473877731        3.2426491782
 H       -14.9352801513        0.3297743964        1.3425302333
 H       -13.9159550526       -0.2354710233        2.4864605997
 H       -10.1494485139        0.5361414441       -1.5882481728
 H        -9.0144207266       -0.2499566793       -0.4721636227
 H        -8.9743962888        1.5979520178       -0.6738913485
 H       -11.4154443403       -0.1064786551        3.3865133872
 H       -10.4429760335       -1.1303608614        2.4925350748
 H       -12.0606183919       -1.5890014774        2.4767565731
 H       -12.1594012288       -0.6230246874       -0.9059554076
 H       -12.8259670574       -1.7532924750        0.0828291019
 H       -11.0643294766       -1.6862936336       -0.0393396435
 H       -14.1844661735        3.5201418777        7.2726588954
 H       -12.6325037508        2.5766799555        6.7162396179
 H       -14.4131025645        1.9965959855        6.8378890575
 H       -15.1928991350        4.7222477436        4.0141429269
 H       -15.3713892950        4.6517961288        5.8191452976
 H       -16.2508241700        3.3721905667        4.9551241761
 H        -8.6633858544        6.4099479315        3.0811995245
 H        -8.3290789561        6.9696379858        4.7027039660
 H        -7.5866165118        7.7711792238        3.3079094227
 H        -8.8803671418       10.0612914174        4.1549667401
 H        -8.9520608286        8.9557740950        5.5826386645
 H       -10.3820939617        9.9049008207        4.8410837019
 H       -10.7611018339        9.3581425560       -1.2742843672
 H       -12.2525786203        8.5546767875       -2.1717772187
 H       -10.5254589101        8.3625014296       -2.5973141081
 H       -11.6631890343        6.0078210358       -3.1838572250
 H       -13.0884911097        6.3219978056       -2.2349618993
 H       -12.0307667235        5.0757142499       -1.7518276108
 H        -6.4259780005        5.6152807226       -4.6391910705
 H        -6.2612208229        4.4209587842       -5.9880216290
 H        -5.8148776936        4.0218828588       -4.2526929307
 H        -9.8730747211        3.8151190082       -5.8143802898
 H        -8.4055410920        3.5793296368       -6.7825813432
 H        -8.5221407604        5.1369985593       -6.3442326301
 H        -3.7032290458       -2.6986260028       -6.0035624340
 H        -5.2691829178       -2.1106739072       -6.4771653459
 H        -5.0856591200       -3.0086306320       -4.9553967429
 H        -3.9615921497       -0.1844246478       -3.0565098973
 H        -2.8393781770       -1.5253404963       -3.4846910197
 H        -4.4432355507       -1.8207542559       -2.7069272229
 Na      -11.4711975822        4.0289480781        0.9363059140
