117

 C        -2.4141006797        0.3140779753       -5.1983463375
 C        -3.8693343335        0.0448908651       -5.4417908251
 O        -4.4263463793        0.3556146602       -6.5060866714
 C        -4.6460127096       -1.0018896163       -4.5642042353
 C        -6.2530623372       -0.7656310507       -4.5017333576
 O        -7.0636924158       -1.3585949414       -3.8435626430
 C        -6.6945440972        0.5757064434       -5.2496040934
 C        -8.0575086875        1.2086927628       -4.8062776430
 C        -7.8484388788        2.3454584286       -3.9860965950
 O        -7.7658902583        2.3019066618       -2.7331079826
 C        -7.7308979852        3.7559227719       -4.5870192364
 C        -8.5328762853        4.9009821627       -3.6655676857
 O        -9.6580661382        5.0892865784       -3.9806939731
 C        -7.9212111875        5.4069973978       -2.3669254260
 C        -8.6811029643        6.6489632219       -1.8619976379
 C        -9.9044425404        6.2545957711       -1.0551283256
 O        -9.8490300106        5.2483213950       -0.3513662904
 C       -11.3572510816        6.9758782406       -1.1698981562
 C       -11.9798625923        7.2210713289        0.3364981139
 O       -11.9559900042        6.1653266943        1.0212495876
 C       -12.4757086151        8.4492456597        0.9285036456
 C       -11.7225940452        8.9904685983        2.1803913963
 C       -10.2148909598        8.5300982143        2.3667317977
 O        -9.3420238441        8.7141422525        1.5326338858
 C        -9.5934615337        8.1987796193        3.7803529629
 C       -10.5915625413        7.3612827450        4.6569931773
 O       -11.6149770702        8.0430349163        4.8414943787
 C       -10.5790808287        5.7508572386        4.8758853904
 C       -11.8567808677        5.1876746097        5.4279891023
 C       -12.7331632476        4.2959041692        4.4256782269
 O       -12.4326850771        4.3446489399        3.2513367852
 C       -13.9263497004        3.4545743116        5.0751530202
 C       -14.0711749688        2.1007536345        4.2757733939
 O       -13.5708460406        1.0885252996        4.6417908042
 C       -14.6732060345        2.0184108813        2.6961898187
 C       -14.1568176688        0.6349322091        2.0846917571
 C       -12.7700258145        1.0947191226        1.2360190204
 O       -12.9167237322        2.1789641915        0.6896711851
 C       -11.6648971894        0.0077489980        0.9242938956
 C       -10.3656109583        0.9136722367        0.4873199139
 O       -10.1213574186        1.9155287223        1.1787790059
 C        -9.4528518132        0.4100742009       -0.6135091966
 C       -11.2911899253       -0.8040577755        2.1774939467
 C       -12.2337009885       -0.8239026939       -0.2142827587
 C       -13.5328465141        3.2023500904        6.5519495183
 C       -15.2561383312        4.1832648809        5.0287049333
 C        -8.2077811347        7.4532579790        3.6403510068
 C        -9.4602238469        9.5541453897        4.4921979129
 C       -11.1367235770        8.2529857787       -1.9646928789
 C       -12.2418843508        6.0803087365       -1.9844734365
 C        -6.2462799882        4.1983272412       -4.8654160899
 C        -8.5413962612        3.7859983030       -6.0431512601
 C        -4.5339643086       -2.3468681258       -5.3152651953
 C        -4.1194531705       -1.2244665358       -3.1513761196
 H        -2.2132239964        1.3286459592       -5.5888519309
 H        -1.8312970644       -0.4112417660       -5.8250714352
 H        -2.1887053942        0.2861152463       -4.0604749744
 H        -7.0113440646        0.2121040182       -6.2765349531
 H        -5.9722889827        1.4164938930       -5.3051808804
 H        -8.7512782725        0.4087935907       -4.4189498887
 H        -8.5775984656        1.6851152494       -5.7155348000
 H        -6.8763090193        5.7289172157       -2.4517036008
 H        -7.8958222726        4.5701968521       -1.6767311927
 H        -8.9294789685        7.2653716432       -2.7385123168
 H        -8.1185502979        7.2791038622       -1.2019577777
 H       -13.5386421430        8.2235181734        1.3530451536
 H       -12.4861309442        9.2714769554        0.1850543253
 H       -12.2392650464        8.4529342211        3.0074304604
 H       -11.8324098707       10.0600797588        2.1634058487
 H        -9.7504906139        5.2116093588        5.2990320898
 H       -10.5349937410        5.4632229854        3.8540077494
 H       -12.5642786295        5.9741805621        5.8001442794
 H       -11.6816542648        4.5215966860        6.2640817094
 H       -14.4232145299        2.6725875428        1.9397456596
 H       -15.7785280014        1.8996614057        2.7000250741
 H       -14.8799583026        0.3385580400        1.2746177000
 H       -14.0861706634       -0.2816875490        2.6266261355
 H        -9.9975706641        0.7590996353       -1.5400920976
 H        -9.5164233174       -0.6372775430       -0.6724409216
 H        -8.5125183584        0.8842816888       -0.6909685129
 H       -11.3211384823       -0.1719952531        2.9804802108
 H       -10.2543603216       -0.9431288376        2.2660761087
 H       -11.7982844950       -1.7708986338        2.2686777412
 H       -13.0887854680       -0.2135175058       -0.7649872798
 H       -12.6581668270       -1.7539134493        0.1289822114
 H       -11.3795346136       -1.1949504608       -0.7938277283
 H       -13.4994729701        4.2238714146        6.9729653882
 H       -12.7057559572        2.5659556547        6.6752968581
 H       -14.4181636224        2.8558850743        7.1311093378
 H       -15.6864459395        4.0591119433        4.0761672268
 H       -15.1794092029        5.1952009482        5.3929866062
 H       -15.7744672912        3.6057547762        5.8063684495
 H        -8.2484808494        6.6342795573        2.8691760353
 H        -7.8815732610        7.0803862408        4.5627341956
 H        -7.4257264264        8.1120136963        3.2868569490
 H        -9.4571130632       10.4122232074        3.7405898245
 H        -8.5815360777        9.4992485490        5.1028056313
 H       -10.2371270166        9.7124762968        5.3114756201
 H       -10.5623618755        8.8817186357       -1.2869744357
 H       -12.0106501141        8.8478771075       -2.1543914610
 H       -10.4460883804        8.0047794125       -2.8016159826
 H       -11.8728898862        5.9858277714       -2.9364530694
 H       -13.2456402655        6.3377599840       -2.1920328031
 H       -12.2947168888        5.0388241653       -1.5492732684
 H        -6.1789762023        4.9663730890       -5.5553594775
 H        -5.7563728583        3.3396079148       -5.2817795772
 H        -5.7669390329        4.4998891783       -3.9010402318
 H        -9.3849255934        3.2162343555       -6.0512799452
 H        -7.9391015017        3.3729762468       -6.8769389988
 H        -8.7635032993        4.7295544299       -6.4759082384
 H        -3.5315566991       -2.3290709310       -5.8099370927
 H        -5.2993006567       -2.2730467700       -6.2065098988
 H        -4.7828069681       -3.1983387720       -4.6485060108
 H        -3.7736879619       -0.3674645984       -2.5087410889
 H        -3.2239311649       -1.8211066102       -3.2361751657
 H        -4.9341705054       -1.7536461509       -2.6589858058
 Na      -11.4447703692        3.8529169498        1.1489155717
