117

 C        -2.8319950748        0.3641134152       -4.5600163051
 C        -4.0175188113       -0.4389982880       -5.0744966320
 O        -4.0188116212       -0.2968656532       -6.3163991827
 C        -4.9201901871       -1.2522837874       -4.2142675318
 C        -6.4724162061       -0.9329176493       -4.2460849946
 O        -7.3317623087       -1.4570696243       -3.5350981321
 C        -6.9503986175        0.1208248039       -5.2282342258
 C        -8.2665711065        0.9968566252       -4.7116305487
 C        -7.9800714992        2.2287897759       -3.8322249600
 O        -7.9492043287        2.1237355679       -2.6401588433
 C        -7.6521252047        3.6322339284       -4.5559699772
 C        -8.4839727462        4.7768800130       -3.9131205133
 O        -9.2259254848        5.4601328771       -4.5345485516
 C        -8.3067443392        5.0521280694       -2.3346062504
 C        -8.9960982013        6.3200520496       -1.7495600893
 C       -10.3568999199        5.8394261163       -1.1324747116
 O       -10.3540841067        4.7156351883       -0.6531166019
 C       -11.5810471615        6.8232955214       -1.1113624969
 C       -11.7746327858        7.5373619008        0.3025998516
 O       -11.9652831662        6.7816870604        1.2800867650
 C       -12.0209330609        8.9324773761        0.5442535183
 C       -11.3579577192        9.3991288039        1.8464017287
 C       -10.0933307205        8.4464591954        2.2307201640
 O        -9.6141927268        7.7775823588        1.3533013616
 C        -9.4335571487        8.4171412773        3.6414082988
 C       -10.4918211676        7.5291746516        4.3053477136
 O       -11.4630944362        8.0494885618        4.9476583584
 C       -10.6280202278        6.0224320788        4.0382591773
 C       -11.4345035982        5.2073306405        5.0171787520
 C       -12.6000324050        4.3534105774        4.2666970556
 O       -12.4160297573        4.1262697938        3.1278484703
 C       -13.7413000640        3.6854563194        4.9834125555
 C       -13.9707444850        2.2120912501        4.4016132191
 O       -13.5822298202        1.2001262458        4.9186977737
 C       -14.5519775061        2.2369807965        3.0018040351
 C       -14.1354857000        1.0773356900        2.0528410083
 C       -12.7278187959        1.4795110735        1.1272840680
 O       -12.5556842341        2.5727976302        0.6317308068
 C       -11.7020740186        0.2688389668        0.8209379422
 C       -10.2676009029        0.8509789751        0.4140868379
 O        -9.9310914479        1.9981606214        0.7758944591
 C        -9.3913880403       -0.0174297096       -0.4617474127
 C       -11.5277886362       -0.8643829264        1.9483332478
 C       -12.2404384822       -0.2789917917       -0.6276343229
 C       -13.4674240280        3.8164643210        6.4980313323
 C       -15.0229861115        4.6783640158        4.6962274452
 C        -8.0793444772        7.6988477419        3.6361388630
 C        -9.4994232850        9.7858177394        4.3038754864
 C       -11.2998195962        7.8968655315       -2.1871646116
 C       -12.8933926179        5.9541871632       -1.4253346752
 C        -6.1339058224        3.8976640705       -4.3748978422
 C        -8.0001816345        3.5091279241       -5.9991179717
 C        -4.7777932853       -2.7910500217       -4.6302305642
 C        -4.5001346961       -1.1078838021       -2.7523877486
 H        -2.1703916599        0.6851203541       -5.4547325543
 H        -2.2820882781       -0.1744724348       -3.8513912220
 H        -3.3200940361        1.2076315862       -4.0033147539
 H        -7.2351948455       -0.5484895670       -6.1231908071
 H        -6.0987037868        0.7860304648       -5.4274388727
 H        -8.6729811627        0.3057568034       -4.0001879257
 H        -9.0001043669        1.1378470421       -5.5894299670
 H        -7.2140617700        5.1842961039       -2.1520504382
 H        -8.6530656554        4.2584979166       -1.6619671323
 H        -9.0525234871        7.1073026541       -2.4949009789
 H        -8.4038947879        6.7429251683       -0.9732492064
 H       -13.1211767656        9.2086936702        0.6175093189
 H       -11.5760655205        9.5987818954       -0.2641813183
 H       -12.1906282204        9.2861097136        2.6275408413
 H       -11.0335026198       10.4731539284        1.7431990464
 H        -9.6971725563        5.4951871069        3.8480560034
 H       -11.1496317079        5.9425497321        3.1000113674
 H       -11.7798325001        5.8245819079        5.8492837203
 H       -10.8308066187        4.4580595068        5.5083416160
 H       -14.1947547822        3.0866433991        2.5776861432
 H       -15.6138316829        2.2218867211        3.0366632213
 H       -14.9321762717        0.8790696217        1.2124758404
 H       -14.0308572191        0.1864579667        2.6032637287
 H        -9.7058163855        0.0609059279       -1.5377092671
 H        -9.3765631038       -1.0599686543       -0.1992185557
 H        -8.4071493067        0.3986299876       -0.5146064383
 H       -10.9123459098       -0.5390539729        2.7964664239
 H       -11.0743832891       -1.7139157145        1.5654760420
 H       -12.5500131318       -1.0514227874        2.2377267818
 H       -11.9388115263        0.4925633206       -1.3290794010
 H       -13.4150045567       -0.3681957335       -0.4937100220
 H       -11.8412780800       -1.2368234899       -0.9410947349
 H       -13.2747290930        4.8738354691        6.6611304953
 H       -12.5173393710        3.3905211604        6.7456096869
 H       -14.2822541586        3.3115323726        7.1731396745
 H       -15.0074813798        5.0153519564        3.6662026131
 H       -14.9171674767        5.4898647326        5.4208996193
 H       -15.8701325458        3.9369754895        4.7438416994
 H        -8.2107763413        6.9845009962        2.8251802427
 H        -7.8607887779        7.1330612189        4.4899220421
 H        -7.2068797293        8.3463046215        3.4016768758
 H        -8.5509205255       10.1803126944        4.3384374373
 H        -9.8843795823        9.7257569818        5.2998974064
 H       -10.3215696370       10.3857027375        3.9701378088
 H       -11.0242671482        8.8601197773       -1.8121944954
 H       -12.2292064480        8.1641885789       -2.6422238702
 H       -10.7717022986        7.4190256316       -3.0282942152
 H       -12.9221018160        5.6456930523       -2.4164646325
 H       -13.8129160518        6.5681398927       -1.3930837142
 H       -13.1036885435        5.0105891638       -0.8093283865
 H        -6.0746467812        4.9725400908       -4.6220006339
 H        -5.5598990912        3.3605878311       -5.1262210319
 H        -5.6467525862        3.6530168556       -3.4385760766
 H        -9.0044181414        3.6773385488       -6.2566246140
 H        -7.6266838841        2.6702512444       -6.5079841462
 H        -7.6323337327        4.4158930584       -6.5260073737
 H        -3.8568449233       -3.0683937635       -4.2614105258
 H        -4.6656362585       -2.8921515091       -5.6965528512
 H        -5.7270723698       -3.1852582857       -4.2477570926
 H        -4.6368506755       -0.0579816094       -2.4169130339
 H        -3.4577944874       -1.2118504981       -2.5759775392
 H        -5.1836358978       -1.7859868998       -2.3028024015
 Na      -10.9955493579        4.1299227037        1.3854920537
