117

 C        -3.5054758839        0.5209737625       -4.1926694192
 C        -4.2983759870       -0.7554130839       -4.5921974747
 O        -4.2431199168       -0.9521096341       -5.7883774147
 C        -5.1524244428       -1.5403170782       -3.6156989110
 C        -6.7447634355       -1.0526752961       -3.9656111944
 O        -7.7364507955       -1.4199577069       -3.2981519357
 C        -6.8570500072        0.0180162757       -4.9708300889
 C        -8.2282582977        0.8510400858       -4.8115805172
 C        -8.0214450210        2.0671700595       -3.8757096668
 O        -8.2056438809        1.9184077310       -2.6276354796
 C        -7.4327419379        3.4519037240       -4.3829691006
 C        -8.1642405349        4.7056207231       -3.8826699810
 O        -8.8355615990        5.4079965796       -4.6081111846
 C        -8.4231584746        5.0395513304       -2.3698462969
 C        -9.4227538468        6.1866296747       -2.0598523414
 C       -10.7884255103        5.5987953767       -1.5615615140
 O       -10.8424834176        4.4396807688       -1.2701614795
 C       -12.0429925220        6.5545440202       -1.5144468409
 C       -11.7696567061        7.2568340095       -0.1678016267
 O       -11.8557133347        6.6641211122        0.9283038459
 C       -11.1482872928        8.6541134322       -0.0723821301
 C       -10.8142707261        9.1235038197        1.3715270495
 C        -9.5690679941        8.3831997719        1.9552642771
 O        -8.8241136973        7.8447745857        1.2041727862
 C        -9.3338521346        8.6031373446        3.5229667029
 C       -10.3502564733        7.6602982208        4.3093755206
 O       -10.8832263309        8.0580511755        5.3690490499
 C       -10.4818286642        6.1953017772        4.0934739526
 C       -11.4137097492        5.4479102094        5.0180545182
 C       -12.2219324704        4.3807940231        4.3057338029
 O       -11.9787900583        3.9092295000        3.2410111400
 C       -13.6945632536        3.9694704868        4.9567065721
 C       -13.9806962534        2.5660915792        4.2869515426
 O       -13.5425333150        1.5595252646        4.8802782619
 C       -14.6511582447        2.2494265527        3.0090038334
 C       -13.8289951488        1.1118666815        2.3685127579
 C       -12.8926997340        1.6240154068        1.2754570196
 O       -12.9717199541        2.7364271775        0.7693155766
 C       -11.8278566438        0.5645002419        0.5908986320
 C       -10.4733692944        1.1556840764        0.3984369370
 O       -10.1498876302        2.3178865580        0.6799865541
 C        -9.2154283916        0.2292132736        0.1789574403
 C       -11.6964500659       -0.6762125463        1.5840210266
 C       -12.4333863425        0.2179073980       -0.8944178915
 C       -13.5078054193        3.8427794329        6.4612251994
 C       -14.5465799329        5.1837430297        4.5678417698
 C        -7.8235761097        8.1321303270        3.8216299653
 C        -9.5505858490       10.0502295285        4.0697490884
 C       -12.0446677000        7.6022510323       -2.7538499180
 C       -13.2709131396        5.7046996375       -1.5700591314
 C        -5.8427272185        3.3479078169       -3.9093957565
 C        -7.5087379300        3.6403103833       -5.9244405039
 C        -5.2882438139       -3.0193200566       -3.7881661156
 C        -4.6781428929       -1.2031925034       -2.1289210306
 H        -3.3638373778        1.1622929304       -5.1341259462
 H        -2.5309019763        0.2337703287       -3.9450147278
 H        -3.8713766510        1.0071169067       -3.2848468940
 H        -6.5890905310       -0.5290017402       -5.9410223271
 H        -6.0064798705        0.5838928320       -4.6487168843
 H        -8.8905291396        0.2075382004       -4.3524126861
 H        -8.5379564163        0.9295553779       -5.8557576705
 H        -7.4635070520        5.3989570913       -1.9080116174
 H        -8.6964979468        4.0677616720       -1.8793596004
 H        -9.4088239352        6.8549705809       -2.9433793969
 H        -8.9919997319        6.8003726202       -1.2807314814
 H       -11.6597904933        9.4570922711       -0.5570993536
 H       -10.1523470690        8.6938646920       -0.6208681229
 H       -11.7268869934        8.9889444544        2.0483047721
 H       -10.6761940850       10.2332551423        1.3737242524
 H        -9.4181884089        5.8873604700        4.3024402723
 H       -10.6848278063        5.9237721935        3.0536672095
 H       -12.0483683387        6.1373979299        5.5792216896
 H       -10.8267163719        4.9868988838        5.7806022524
 H       -14.5618135627        3.0529204221        2.3131643142
 H       -15.6819569456        1.9748147243        3.1967096882
 H       -14.5201355650        0.4497661587        1.6701643777
 H       -13.2306410096        0.5780259311        3.0295566160
 H        -8.4338301253        0.6030352949       -0.5217045789
 H        -9.3638491065       -0.8134821499       -0.1208433331
 H        -8.6505282406        0.1199538040        1.1443618672
 H       -11.3314915153       -0.2489187589        2.5406175850
 H       -11.3402845657       -1.5363482727        1.1088453649
 H       -12.7259304030       -0.8792919018        1.7848574756
 H       -12.4065490644        1.0940169309       -1.4247356475
 H       -13.4895458285       -0.1858131175       -0.7340721807
 H       -11.6959608067       -0.4035277882       -1.4407571174
 H       -13.2499325810        4.7744825346        7.0163677797
 H       -12.6859321553        3.1067091886        6.6550658664
 H       -14.3957880408        3.2976732125        6.9125676503
 H       -14.7666525381        5.2212067592        3.4819596624
 H       -13.8913484569        6.0445018459        4.7101633184
 H       -15.4435757102        5.0234486105        5.2226683027
 H        -7.5891793065        7.1444460942        3.5109257871
 H        -7.5294564960        8.2097164318        4.8631613940
 H        -7.1513028984        8.8097574924        3.1692020944
 H        -8.8859284876       10.6839363292        3.5965105206
 H        -9.1314840478       10.1032912333        5.0879861034
 H       -10.6306391818       10.3070264325        4.0797925384
 H       -11.1291529919        7.4068467456       -3.3585935503
 H       -12.0319027208        8.6585811171       -2.5074671441
 H       -12.9515455226        7.6231672002       -3.3160437599
 H       -13.2347033267        4.9246289853       -2.3380704353
 H       -14.2172474923        6.3081392907       -1.5383753803
 H       -13.3885721461        5.1029120233       -0.6704428755
 H        -5.2328811576        4.3046799346       -4.1886203389
 H        -5.4089171325        2.4793402633       -4.4434642267
 H        -5.7052369112        3.0882740651       -2.8810778921
 H        -8.5296060505        3.7936931022       -6.3343616652
 H        -7.1598713969        2.7724271309       -6.3493995432
 H        -7.1127192155        4.5752818475       -6.4334766683
 H        -4.3030365656       -3.3826722936       -3.6965607908
 H        -5.7401861208       -3.1672853443       -4.6772811617
 H        -5.9472228522       -3.3283137357       -2.9617393134
 H        -4.8167378498       -0.1103789703       -1.9201977188
 H        -3.6732713280       -1.6093546000       -1.9786216512
 H        -5.3486127559       -1.8325300614       -1.5249077335
 Na      -11.1332886051        4.2981639210        1.0026102023
