117

 C        -3.6691865990        0.3171999138       -4.0384840508
 C        -4.3499246651       -0.9273437053       -4.3959964140
 O        -4.2262276823       -1.5024177500       -5.5048691147
 C        -5.3440395887       -1.5077227678       -3.3728153140
 C        -6.7691606281       -1.0409362351       -3.6144107912
 O        -7.6991854920       -1.4049791882       -2.9870469464
 C        -7.1185971941       -0.0599086287       -4.8754422845
 C        -8.3759342355        0.9663908623       -4.7842405782
 C        -8.1378534149        2.2006492344       -3.8224434625
 O        -8.4377652982        2.0698047430       -2.7102356846
 C        -7.2892967035        3.4401525879       -4.3621563336
 C        -8.2314790368        4.6392272778       -3.9477531925
 O        -8.7686772800        5.3988726759       -4.7000196366
 C        -8.2606506532        5.0042490575       -2.5289176073
 C        -9.4831085226        5.9683758095       -2.1971477546
 C       -10.8411447698        5.3778335143       -1.9270334845
 O       -11.0826596594        4.1753651269       -1.7134722041
 C       -11.9720723223        6.4629959619       -1.7520130556
 C       -11.5579775130        7.1615009682       -0.3201727826
 O       -11.8770189663        6.5537665481        0.6720576730
 C       -10.9133902009        8.4695294855       -0.2493436202
 C       -10.7130824513        8.9354379901        1.2420962790
 C        -9.4520854793        8.3685643047        2.0184753849
 O        -8.4814494438        7.8992667352        1.3716261362
 C        -9.0839181784        8.6999429627        3.5427266052
 C       -10.0352480856        7.8665166511        4.4743149592
 O       -10.6879343508        8.3363237285        5.3555502516
 C       -10.1880927379        6.2672461600        4.1342493702
 C       -11.3096235145        5.5903906151        5.0207340755
 C       -12.0855680517        4.4923004402        4.2517186004
 O       -11.6062179065        4.0338900894        3.1961238345
 C       -13.5318779778        3.9641305694        4.9290248978
 C       -13.9190608656        2.4983734255        4.5677952076
 O       -13.7256729755        1.5430419085        5.2217284256
 C       -14.4695679602        2.3867036312        3.1338873612
 C       -14.1448677790        1.1501622988        2.2503569284
 C       -12.9316662343        1.6526513538        1.2088078513
 O       -13.1382832341        2.7068027268        0.6452261986
 C       -11.8445948813        0.6904564898        0.6610494395
 C       -10.3526078396        1.2804617054        0.6343764726
 O       -10.1475189353        2.4779829490        0.8403391347
 C        -9.3665654303        0.3850050298        0.1637848623
 C       -11.8287614867       -0.8353266151        1.2781063545
 C       -12.2076190605        0.4586694643       -0.8909610320
 C       -13.4413726552        4.0720183295        6.4503224169
 C       -14.5942107387        5.1628131783        4.3436173151
 C        -7.6865373498        8.2062678694        3.9171922693
 C        -9.5667122083       10.1711995433        3.6611962964
 C       -12.1126769746        7.4086210056       -2.9471938899
 C       -13.3848632920        5.7879485505       -1.4958149568
 C        -6.0077420859        3.6183597006       -3.6046484117
 C        -7.0103330982        3.3199507397       -5.9050650618
 C        -5.3280301821       -3.0834155311       -3.6386612406
 C        -4.9999544438       -1.2276264059       -1.9089038212
 H        -3.3550868262        0.9000034420       -4.9069341313
 H        -2.7328709494        0.1796137797       -3.3920078103
 H        -4.3378761420        0.8502329043       -3.3139004399
 H        -7.1252465926       -0.7018206160       -5.7253182816
 H        -6.1616246286        0.5163164817       -4.8458977953
 H        -9.3590505762        0.3721600698       -4.5742518839
 H        -8.4760133219        1.2687493557       -5.8733295867
 H        -7.3835292623        5.5901323716       -2.3395144801
 H        -8.1718347570        4.0893553224       -1.9673139326
 H        -9.5413230204        6.7291221825       -2.9550323203
 H        -9.1649886167        6.5249738705       -1.2878267533
 H       -11.6489003667        9.2279394447       -0.7465793541
 H       -10.0789548737        8.5959549310       -0.9432571264
 H       -11.6100052771        8.7166329259        1.8085956480
 H       -10.7149623961       10.0414760224        1.2762953616
 H        -9.2037146188        5.8743721078        4.1454611942
 H       -10.5112650611        6.1455157402        3.1077098673
 H       -11.9450731915        6.4109695381        5.3582266877
 H       -10.8900100125        5.1804638381        5.9773274294
 H       -14.3020350010        3.3282861223        2.6073694044
 H       -15.5562177048        2.2063674961        3.2558602730
 H       -14.9826563276        1.0419739366        1.7103601375
 H       -13.8089966468        0.2979580307        2.9326482008
 H        -8.3718945835        0.8350351867        0.1941190513
 H        -9.4594810444        0.0649030841       -0.8479088714
 H        -9.3323873939       -0.5726403375        0.6876113099
 H       -11.0527535182       -0.8339014597        1.9738911587
 H       -11.7936250134       -1.3209820705        0.3636075860
 H       -12.7688985553       -1.2452722116        1.7572572518
 H       -12.0471674326        1.4248490621       -1.5042728254
 H       -13.2584965879        0.1684955051       -0.9126964757
 H       -11.4992716110       -0.2067082983       -1.2887278592
 H       -13.3971715100        5.0736283734        6.8445860045
 H       -12.6928435083        3.4641973523        6.8489269801
 H       -14.3772212127        3.6185507778        6.8246370456
 H       -14.5593461350        5.2045549290        3.2574087686
 H       -14.3650759518        6.1914130775        4.7192479522
 H       -15.4902509985        4.7200767034        4.7735976763
 H        -7.4853911605        7.1042184136        3.8029294146
 H        -7.3789624184        8.5019220789        4.8993000288
 H        -7.0377754378        8.6115669478        3.2269325995
 H        -9.4359873946       10.6820261841        2.6232954427
 H        -8.9129485594       10.7489548796        4.2678512248
 H       -10.6320610217       10.1632464853        3.8713732935
 H       -12.0151058002        7.0239681380       -3.9572016546
 H       -11.5632370332        8.3177573860       -2.7390466975
 H       -13.1093994775        7.9421487595       -2.8818801676
 H       -13.6571300387        5.0465486707       -2.1906145509
 H       -14.1205351268        6.4993240806       -1.3024697024
 H       -13.3953959062        5.2017105199       -0.5316942245
 H        -5.4033931807        4.3801007410       -3.9030866618
 H        -5.3985699005        2.7289827930       -3.4607550207
 H        -6.4256903937        3.8749655803       -2.5902701916
 H        -7.9669716238        3.3190093327       -6.3963131571
 H        -6.4066346412        2.5054539116       -6.3635058336
 H        -6.5543195699        4.1921660421       -6.3169770065
 H        -4.7646424072       -3.4632263682       -2.7765347910
 H        -5.1237434756       -3.2837645646       -4.7770090347
 H        -6.3536270092       -3.3220210522       -3.4137845568
 H        -5.5935194583       -0.3905758907       -1.6478704912
 H        -3.9318592494       -1.3199368420       -1.7611180314
 H        -5.4203632718       -2.0397129903       -1.3713094444
 Na      -11.6572344827        4.2941172794        0.8697223235
