117

 C        -3.6024475442        0.3116171362       -4.0551114165
 C        -4.3717480419       -1.0151791037       -4.2644291025
 O        -4.1297682194       -1.6466934346       -5.3304478772
 C        -5.5018628719       -1.6149688887       -3.2885985386
 C        -6.9832833787       -1.0023838026       -3.5826583384
 O        -7.8400650376       -1.2787127991       -2.7269639974
 C        -7.1761838886       -0.0987120351       -4.8590462152
 C        -8.3547682280        0.8882886923       -4.6751094321
 C        -8.0371993878        2.1045999809       -3.8215425889
 O        -8.5456112630        2.2206774630       -2.7454213986
 C        -7.3158747634        3.4492777160       -4.3106133559
 C        -8.2227306362        4.7276344468       -4.1071904284
 O        -8.8100613346        5.3479206215       -4.9534074192
 C        -8.3852877763        4.9348970564       -2.4604818423
 C        -9.5208296363        5.9673388826       -2.2119264492
 C       -10.8698327361        5.2472030938       -2.0998941338
 O       -10.9618100980        4.0404294131       -1.9635517755
 C       -12.0094417105        6.4154189636       -1.8079529814
 C       -11.5489885486        7.0900386525       -0.4111779520
 O       -11.8063841089        6.4433126462        0.6030713962
 C       -10.8432458956        8.3860423481       -0.2143713061
 C       -10.6155120620        8.8903579710        1.2546563893
 C        -9.3167375810        8.3404221314        1.9397935918
 O        -8.4598345161        7.8101421633        1.2684851020
 C        -9.0834834616        8.7404287647        3.4470214784
 C       -10.0386806739        7.8796541133        4.3651144053
 O       -10.6095915139        8.4073681752        5.3327586033
 C       -10.1031945612        6.3915642166        4.1580931367
 C       -11.2668953655        5.7012918088        4.9766983310
 C       -12.0207014238        4.6263866729        4.2735282142
 O       -11.5768153201        4.0992115973        3.3038335385
 C       -13.4050453524        4.0829962244        4.8429587912
 C       -13.7803884666        2.4416183164        4.4667313312
 O       -13.7783380945        1.6100180060        5.3618717136
 C       -14.3970465216        2.4397614401        3.0734276481
 C       -14.0806989002        1.1578170503        2.2799189536
 C       -13.0167874533        1.5501689001        1.1783444582
 O       -13.2183781255        2.6044443627        0.6373071076
 C       -11.9103012206        0.6639518202        0.5756680619
 C       -10.4215441607        1.3238650187        0.6511541374
 O       -10.2894109981        2.5086808165        0.9970702102
 C        -9.2971717189        0.4370989105        0.1449666379
 C       -11.9370470348       -0.7458158727        1.2666198817
 C       -12.1653712470        0.7457688292       -0.9888184760
 C       -13.3658712994        4.3247973349        6.3963259112
 C       -14.5723061131        4.9601508323        4.3527820162
 C        -7.5743770704        8.4241656427        3.9350879958
 C        -9.4043505388       10.2917011264        3.5932045127
 C       -12.0579889895        7.3691332199       -2.9491284942
 C       -13.4448507931        5.8716918927       -1.5092424230
 C        -5.9657041849        3.5704925356       -3.3873715240
 C        -6.8182159656        3.1760401907       -5.7899655144
 C        -5.4123843861       -3.2369006380       -3.5459218556
 C        -5.2303778514       -1.2622353094       -1.7199377688
 H        -3.0441038035        0.3476976043       -5.0321600279
 H        -2.8396328070        0.2721374121       -3.3646741824
 H        -4.1470690671        1.2710449373       -3.8266259750
 H        -7.1966574146       -0.8159680831       -5.6293427816
 H        -6.1614069382        0.2519753383       -4.8506187057
 H        -9.0515570744        0.2857032888       -4.1718642535
 H        -8.8757878808        1.2287742507       -5.6105836371
 H        -7.4719063443        5.1712295223       -1.9308494881
 H        -8.7345583938        3.9783507604       -2.0667731226
 H        -9.5593073361        6.7622012068       -3.0009792261
 H        -9.2892209858        6.5056151741       -1.2880877404
 H       -11.3006845844        9.1354498389       -0.7885659656
 H        -9.9504799686        8.3049062677       -0.7279367397
 H       -11.4467028151        8.6531813362        1.8587914161
 H       -10.6419266406        9.9496353929        1.2972575610
 H        -9.0674266263        6.0382491864        4.3975286472
 H       -10.2003203775        6.2316317966        3.0566398530
 H       -11.8183867385        6.4365033019        5.5675103346
 H       -10.6512611314        5.1818281740        5.7814235763
 H       -14.0144301976        3.4008165460        2.6570893326
 H       -15.5731028634        2.3970132396        3.0930780382
 H       -15.0140593799        1.0196063493        1.6921335858
 H       -13.7685582542        0.3747879505        2.9819611727
 H        -8.3887439283        0.7436421287        0.7559347498
 H        -8.8947828182        0.5443926969       -0.8450970409
 H        -9.4769848929       -0.6359694000        0.1726671224
 H       -11.5429711068       -0.4981076906        2.3496145911
 H       -11.5706255016       -1.4173735201        0.4950031736
 H       -13.0316451568       -1.0874725198        1.2962198823
 H       -12.1988804129        1.7234458549       -1.2098253889
 H       -13.2214069170        0.3458416008       -1.1970450240
 H       -11.3898686267        0.3213151492       -1.5229396924
 H       -13.2281997844        5.2911317070        6.7738558771
 H       -12.7333070905        3.6201933732        6.8232981622
 H       -14.3756799000        4.0493655854        6.8303917566
 H       -14.3548397220        5.3907523348        3.4395693660
 H       -14.6197707380        5.7569349079        5.1134251534
 H       -15.5108381065        4.3813497407        4.4975199318
 H        -7.2970476228        7.3878877129        3.6826287564
 H        -7.4830548793        8.5573817669        4.9705076038
 H        -6.7651422400        9.0162889432        3.4144055165
 H        -8.9237755669       10.7802901340        2.7669856365
 H        -8.8746024162       10.6589177696        4.5065863313
 H       -10.5418508999       10.5171417930        3.4003307226
 H       -12.6836248919        6.9324965900       -3.7771684648
 H       -11.0755629830        7.7502109284       -3.1964448731
 H       -12.5162257308        8.3884297097       -2.7780224457
 H       -13.8222937876        5.3641045235       -2.3324361625
 H       -14.0846846886        6.6868506528       -1.1681165421
 H       -13.5700147117        5.1286391059       -0.6800472329
 H        -5.5694437532        4.6009707510       -3.4979309336
 H        -5.1534958727        2.9267600869       -3.6287829501
 H        -6.2443762177        3.5100813516       -2.3810600913
 H        -7.5803846563        2.7558491596       -6.5345208028
 H        -5.9150358039        2.6190369553       -5.9375564417
 H        -6.4312591811        4.1920930154       -6.2459630403
 H        -4.8583523657       -3.6111840181       -2.7029952933
 H        -5.2028650506       -3.3834034451       -4.5994991813
 H        -6.5063730186       -3.5358006209       -3.2581746539
 H        -5.7030868472       -0.2676469777       -1.6945110836
 H        -4.2110788727       -1.4823318135       -1.5543072859
 H        -5.8102669031       -1.8323493475       -1.0324460074
 Na      -11.9038325835        4.2113464058        0.8016108674
