117

 C       -13.2515968547        3.0993941655      -10.9511888884
 C       -12.5513291819        2.8939236899       -9.5545607350
 O       -12.4640216613        3.8868040377       -8.8357859297
 C       -12.0045129720        1.4690059531       -9.3311991407
 C       -11.4166171574        1.3731024497       -7.8487869639
 O       -11.6453889746        0.3292159249       -7.2428132499
 C       -10.6198492816        2.5244308457       -7.0504773346
 C        -9.6231700628        1.9112945181       -6.0874116346
 C        -9.9157955953        2.2589771481       -4.6064395697
 O       -10.9910044377        2.6813423326       -4.1747834885
 C        -8.7918155734        2.0354960745       -3.5694668313
 C        -8.3021231569        3.3944430778       -3.1417405033
 O        -7.3934533200        3.9928587099       -3.6609636000
 C        -9.2080893961        4.2112250601       -2.0988629497
 C        -8.7555723478        5.7209101790       -1.9456347195
 C        -8.3327818431        5.9901034667       -0.4773759242
 O        -8.2151081423        5.0679159512        0.2847374587
 C        -7.9051844615        7.4755245036       -0.0379982062
 C        -9.0300693926        8.0206681478        0.9024257100
 O       -10.1368252303        7.4156956668        0.8393244386
 C        -8.6273307605        8.9520451311        1.9420392851
 C        -9.6041856094        8.8389570265        3.0644810434
 C        -9.3818539951        7.5068680432        3.7804969189
 O        -8.2528268300        7.0268096394        3.7648855927
 C       -10.4845635224        6.9465535249        4.6429743722
 C       -10.4968901501        5.3254435488        4.8769299614
 O        -9.9505221754        4.5345370081        4.1443794478
 C       -11.3721676068        4.8998545886        5.9950402662
 C       -11.3727405565        3.4082436938        6.2850874955
 C       -12.3428078818        2.7570619399        5.1999750629
 O       -12.8400359546        3.4387264127        4.3409026057
 C       -12.4620690681        1.1602198786        5.0659311554
 C       -11.0267808084        0.7874776896        4.3870906264
 O       -10.1036787656        0.4792793336        5.1234169325
 C       -10.9663957121        0.6576842013        2.7821762642
 C        -9.5990672323        0.2792757057        2.2587170593
 C        -8.6160227497        1.5520655553        2.4460015114
 O        -9.0704729190        2.6310514396        2.5123582518
 C        -6.9870855670        1.3434434641        2.3265992804
 C        -6.4407823079        2.2693056829        3.4559839390
 O        -6.3891762443        3.4826162755        3.2927542361
 C        -6.0424405907        1.6182642887        4.8251174676
 C        -6.4989986130       -0.0635324462        2.4625277777
 C        -6.7389524081        1.9507419766        0.9522279285
 C       -12.6233343267        0.5550560770        6.4367799700
 C       -13.7130271033        0.8947199606        4.1675598976
 C       -10.4177207584        7.6073644139        6.0298523036
 C       -11.8441214562        7.2910875121        3.9895649677
 C        -6.5332481333        7.4126417358        0.6732660403
 C        -7.7430272857        8.5830798875       -1.1656341321
 C        -9.3363953233        1.2045650875       -2.3384610893
 C        -7.6011761333        1.2382339026       -4.2644351467
 C       -13.0632639782        0.4633766083       -9.4982832303
 C       -10.8538187030        1.1522528114      -10.4373824802
 H       -13.4733538978        4.0601589395      -11.2839643821
 H       -14.3450290923        2.8883378583      -10.9856945901
 H       -12.7362225371        2.6291050978      -11.7375594030
 H       -11.3736464915        3.1649018285       -6.6657336668
 H       -10.1347091158        3.0781043847       -7.7901417420
 H        -8.5448026923        1.9183362643       -6.2844424407
 H        -9.8081221593        0.8489110389       -6.1132670430
 H        -8.9621180572        3.7435099358       -1.1179765083
 H       -10.2391501822        4.0621602595       -2.2924351103
 H        -9.6250263847        6.2951735228       -2.2557557057
 H        -7.9766508463        5.9820597179       -2.7094352914
 H        -8.3822300145        9.8679658868        1.4475566281
 H        -7.6595268287        8.7192712955        2.3378320387
 H       -10.6427675570        8.9665697006        2.7633371257
 H        -9.4461723216        9.7044024454        3.7826579045
 H       -12.3519569676        5.1442776543        5.6808938547
 H       -11.2254134313        5.5079124425        6.8849277436
 H       -11.8093319548        3.1956722352        7.2638267043
 H       -10.4474732638        2.8844665632        6.3183351100
 H       -11.4052006044        1.5077267561        2.3264316637
 H       -11.6077016339       -0.1509687137        2.4816615224
 H        -9.6148926126       -0.2070871588        1.1696856994
 H        -9.1813738494       -0.4580318522        3.0072519638
 H        -6.0171757792        2.3226607214        5.6714265472
 H        -5.1437765829        1.0814152136        4.8226407128
 H        -6.7840544423        0.8470915238        4.9873098532
 H        -6.6670939174       -0.6036493719        1.5278435154
 H        -6.9776337991       -0.5816719948        3.2810377359
 H        -5.4502550787       -0.1637927350        2.5197516955
 H        -7.4999937710        2.6928085428        0.8619466121
 H        -7.0498037890        1.1411180739        0.2853493789
 H        -5.7128360517        2.2561950446        0.6780100930
 H       -11.6367573095        0.1612965675        6.7261210206
 H       -13.2797973082       -0.2876799521        6.3767501833
 H       -13.0694446062        1.2007405142        7.1260457207
 H       -14.6937103860        0.4558292621        4.6399616754
 H       -13.5106805762        0.2076825476        3.3562181943
 H       -13.9382345525        1.7990235143        3.5396483036
 H       -10.1581630241        8.6366324603        5.9115772926
 H        -9.6243485331        7.2315825468        6.7502046036
 H       -11.3391074970        7.5358012681        6.5166862661
 H       -11.7969276991        7.1069444501        2.9315983421
 H       -12.0320082386        8.3326336186        4.1236041134
 H       -12.7432694630        6.8079808698        4.4695987343
 H        -5.9802542681        8.3651712850        0.6103782495
 H        -5.9064288673        6.7428329505        0.1032731323
 H        -6.5497340387        6.7847171442        1.6618770936
 H        -6.8325801917        8.4045077665       -1.7834112619
 H        -7.4936616970        9.4632182839       -0.5362847405
 H        -8.5981153873        8.6587067622       -1.9273345464
 H        -9.7732953900        0.3067795801       -2.6081793723
 H        -9.9123881886        1.8738758525       -1.7253001600
 H        -8.4139423162        1.0279659104       -1.7371342826
 H        -7.8688086347        0.2203038492       -4.6129299633
 H        -6.7615180985        1.2379236209       -3.4974748010
 H        -7.1555426736        1.7743615968       -5.1603404118
 H       -13.3923007698        0.2470785024       -8.4974668834
 H       -12.6802550161       -0.4718886984       -9.9624329583
 H       -13.8081813563        0.8396034226      -10.2236899554
 H       -10.2283622681        2.1158274289      -10.5271700778
 H       -11.3243930251        0.7839437196      -11.3804236114
 H       -10.1759427131        0.3967643545      -10.0029370660
 Na       -8.0830081705        4.8937057173        2.5862202683
