117

 C        -3.8225830857        0.0171519318       -3.7314527810
 C        -4.4637317605       -1.2724413923       -4.0252771863
 O        -4.1501466180       -1.9736126232       -4.9696958781
 C        -5.6252304053       -1.5989111506       -3.0840372967
 C        -7.0248684974       -0.9343015565       -3.3596548650
 O        -7.8992291254       -1.0332273403       -2.5777902766
 C        -7.2681930243       -0.1838784941       -4.8889963856
 C        -8.4399990521        0.8110166784       -4.7089795487
 C        -8.0289837453        1.9712799562       -3.6923740039
 O        -8.6057573227        2.0559663795       -2.5700347227
 C        -7.0855788419        3.1395936122       -4.1811647832
 C        -8.1984784859        4.4608608406       -4.1315843078
 O        -8.5549711743        4.9289839041       -5.1740497988
 C        -8.3178477260        4.9687544192       -2.6665106191
 C        -9.4549220912        5.9080039759       -2.3948618925
 C       -10.9630264025        5.4116771826       -2.2039853673
 O       -11.3146562370        4.2496023560       -2.1304469111
 C       -12.0911657928        6.5280210518       -1.7782678518
 C       -11.5357073328        6.9244945479       -0.3860278759
 O       -11.5885519677        6.3186132862        0.6489291900
 C       -10.7686830374        8.2708669090       -0.2815779063
 C       -10.5986667228        8.7196016869        1.1149710051
 C        -9.2061725257        8.4120968124        1.8239296461
 O        -8.4066766213        7.6509153498        1.2616821106
 C        -8.9235451635        8.8714294733        3.3304847829
 C        -9.8717385881        8.1069936337        4.1760980009
 O       -10.5142655782        8.5801758002        5.0672286543
 C       -10.0580368320        6.4883421636        4.0014493104
 C       -11.1840143288        5.8389047187        4.9268049521
 C       -12.0528433086        4.7714383499        4.2734459144
 O       -11.6497634815        4.3164832802        3.1814197345
 C       -13.2892583470        4.2593890023        4.8815598250
 C       -13.7256128636        2.7460557167        4.6194421656
 O       -13.5527845885        1.8738564598        5.3940048556
 C       -14.4025542005        2.4228068131        3.1560551169
 C       -13.6197184797        1.2366179570        2.5016772012
 C       -13.1475072598        1.6210235378        1.0919977827
 O       -13.7381665788        2.4745451305        0.3940020965
 C       -12.0109500460        0.6891298150        0.3963789304
 C       -10.5978066841        1.4688339672        0.6627809137
 O       -10.5591327469        2.5224288758        1.2177890276
 C        -9.3552030196        0.6858409320        0.3541358651
 C       -11.9638420612       -0.8579202548        0.8090123265
 C       -12.1306908975        0.6643003920       -1.1797151949
 C       -13.2482160386        4.2412260824        6.3830297024
 C       -14.4531209782        5.2767539225        4.3607410500
 C        -7.3826785031        8.5302272498        3.6926256620
 C        -9.3053956353       10.4353982130        3.5448602801
 C       -12.0524071930        7.5659426746       -2.8895229919
 C       -13.3477453335        5.7666733390       -1.6891573088
 C        -6.0096742286        3.3670484131       -3.1818574712
 C        -6.6515869355        3.2174240416       -5.6456898645
 C        -5.9186508049       -3.2095603078       -3.1750499687
 C        -5.2398571059       -1.2856935203       -1.5627748049
 H        -2.9299436356        0.2851844532       -4.2346031776
 H        -3.6229645368        0.2733913153       -2.6082010552
 H        -4.5409228932        0.7666911574       -4.1123289159
 H        -7.1895119143       -0.9434132702       -5.7332590348
 H        -6.3590356788        0.4470061868       -5.0502951793
 H        -9.4081559411        0.2840115949       -4.4552826174
 H        -8.5930612794        1.2691335187       -5.6468695314
 H        -7.3255792380        5.4465755449       -2.4442032103
 H        -8.4589212503        4.0968742672       -1.9847950554
 H        -9.5884957333        6.6925179294       -3.1225294952
 H        -9.0880044556        6.4421264769       -1.4980698158
 H       -11.3974257736        9.0784591849       -0.8238867910
 H        -9.8057007301        8.3608033400       -0.8577996957
 H       -11.4507428772        8.3934216766        1.7695572848
 H       -10.7169328695        9.8352731161        1.1195048502
 H        -9.0838477127        6.0912608864        4.3177180622
 H       -10.1683456876        6.1762856068        2.9486852173
 H       -11.8051300629        6.6456793261        5.3558345036
 H       -10.6112902872        5.5298721944        5.7681682450
 H       -14.3488455961        3.3132279338        2.5498649063
 H       -15.3942661397        2.1337831299        3.2306330009
 H       -14.2771135272        0.4041282923        2.3926747055
 H       -12.7046195081        1.1128181346        3.1322370883
 H        -9.0012949661        0.0798886254        1.1848796857
 H        -8.3908290657        1.2488309491        0.1937412550
 H        -9.4928364197        0.1949206916       -0.6363328557
 H       -12.1887898202       -0.9005268739        1.7873207415
 H       -11.0412846990       -1.3038801257        0.4632874939
 H       -12.6986057872       -1.2779832375        0.1650605660
 H       -12.2392904013        1.6948418486       -1.7460321293
 H       -13.0000361178        0.0959020128       -1.4501595177
 H       -11.2605102046        0.0348041252       -1.4848328258
 H       -13.2236184372        5.3433211384        6.6999379693
 H       -12.4808906550        3.6160023896        6.9083260436
 H       -14.2137876552        4.0640668469        6.8158013295
 H       -14.2747202207        5.2427107367        3.2685151250
 H       -14.3214594859        6.2887246611        4.7627144111
 H       -15.3664160400        4.9964259929        4.8160707698
 H        -7.1988769389        7.4661820158        3.4087700993
 H        -7.2511512123        8.5605178545        4.8173351711
 H        -6.6189517953        9.1154511707        3.2761084363
 H        -8.6191746947       11.3262293797        3.3741049439
 H        -9.7265574964       10.3963381016        4.5144780794
 H       -10.0314926854       10.5675297965        2.8193598795
 H       -13.0510659973        7.9271558998       -2.9588512655
 H       -11.6022215401        7.1408172317       -3.8064847470
 H       -11.4676656999        8.4606118129       -2.8271416579
 H       -13.5549880051        5.4020227745       -2.7324849050
 H       -14.2188706619        6.2685222114       -1.2524154696
 H       -13.2547540692        4.8328130830       -1.0826865449
 H        -5.7797368449        4.3962408921       -3.0480095662
 H        -5.0414946450        2.9901786575       -3.5580973249
 H        -6.2757182551        2.9746418952       -2.1235232100
 H        -7.4257529599        2.9138867825       -6.2935462195
 H        -5.7541594732        2.6482762563       -6.0295086253
 H        -6.2685341701        4.1575648927       -5.8222653955
 H        -4.9673015402       -3.6510423340       -2.9591032935
 H        -6.2082183354       -3.2284616711       -4.2202585400
 H        -6.4928453058       -3.5725200139       -2.4417621187
 H        -4.9878126940       -0.2887949878       -1.4518476233
 H        -4.6247951286       -2.1480618203       -1.2554205322
 H        -6.2259794780       -1.3039986563       -1.0675724282
 Na      -11.9771288938        4.0632010860        0.7764018385
