117

 C        -3.7538827822       -0.1186553319       -3.7328186349
 C        -4.5929070063       -1.4467066039       -3.7722513548
 O        -4.2572025632       -2.1977140015       -4.6192302446
 C        -5.8048235892       -1.6973404498       -2.8133368091
 C        -7.1483302938       -0.8460302316       -3.2172459944
 O        -8.1145037702       -0.7500059154       -2.3741375979
 C        -7.1981662214       -0.3623924591       -4.6666368327
 C        -8.2521995985        0.7051075637       -4.8179007701
 C        -7.9725788965        1.6770481306       -3.6976546107
 O        -8.3728233045        1.6908305362       -2.5258618305
 C        -7.1016894165        3.0100461877       -4.1623305834
 C        -8.0155969125        4.3559815460       -4.0324981442
 O        -8.7068562432        4.7663719241       -4.9923498352
 C        -8.4039248375        4.9746953492       -2.5893998481
 C        -9.5648430148        5.9907642154       -2.8199203264
 C       -10.8378094581        5.4136830106       -2.2820667864
 O       -11.0597228658        4.2513031710       -2.1008276750
 C       -11.9803084156        6.5576405101       -1.7867102865
 C       -11.4442711968        7.0337957091       -0.4298139541
 O       -11.5668456591        6.2854085378        0.5433575796
 C       -10.8854731106        8.4745477520       -0.3123588048
 C       -10.5788080498        8.8544842166        1.1992046046
 C        -9.1848366186        8.3152996381        1.7513068007
 O        -8.5344565873        7.6468710353        1.0575166102
 C        -8.8803340591        8.8984890367        3.2213584005
 C        -9.9843667149        8.0610880554        4.1234975964
 O       -10.6278897301        8.6473385812        4.9758861197
 C       -10.1165197940        6.5252439500        3.8707567713
 C       -11.1227232986        5.9164043082        4.8077430858
 C       -11.9275026370        4.8888254202        4.1754512589
 O       -11.9227350999        4.5959367523        3.0037628595
 C       -13.2086797248        4.5109761853        4.9669806902
 C       -13.5555057433        3.0008535184        4.4673590026
 O       -13.2733116599        2.1604222383        5.2975447023
 C       -14.1503722964        2.4079129135        3.0692813045
 C       -13.0921019976        1.4412599673        2.5016510872
 C       -13.1945803745        1.4731594794        0.9090033563
 O       -13.9477918927        2.1856162820        0.3100534302
 C       -12.0265893086        0.5923025592        0.1896047268
 C       -10.6654575960        1.2912351273        0.6340085143
 O       -10.7204174809        2.3851912418        1.2221637446
 C        -9.3299493522        0.6395917788        0.4684724794
 C       -12.0386535630       -0.8978140485        0.6564622547
 C       -12.1932384205        0.9400077430       -1.3726963387
 C       -13.1248104070        4.6180773341        6.4953556709
 C       -14.3561282316        5.5201608195        4.5763207284
 C        -7.4122629576        8.5748659343        3.5131498779
 C        -8.9449293860       10.4137849027        3.4427294248
 C       -12.1874736283        7.8053824438       -2.8046536127
 C       -13.4191407074        5.9313150956       -1.6971068350
 C        -5.9865303039        3.0685774399       -3.0017185437
 C        -6.4604518560        2.8731865742       -5.5107684323
 C        -6.3385795207       -3.1326932068       -2.9552360436
 C        -5.4759419564       -1.4938555415       -1.2791984824
 H        -2.9465950331       -0.0166279657       -4.5023697895
 H        -3.2326645257       -0.0499707607       -2.8030424879
 H        -4.1980405001        0.8999176995       -3.9493608776
 H        -7.4188924497       -1.2438703091       -5.2967644656
 H        -6.1893601348       -0.1425318159       -5.0764933359
 H        -9.2148626201        0.2685680304       -4.5244201367
 H        -8.3544209109        1.1228477110       -5.8947271241
 H        -7.4854857826        5.3979888023       -2.2173047157
 H        -8.7010639595        4.1390586521       -1.9705020313
 H        -9.6927121687        6.1545904444       -3.9327873104
 H        -9.3485564026        6.9813427952       -2.4747103217
 H       -11.5351877274        9.1090678989       -0.8204112857
 H        -9.9385071224        8.5639332080       -0.8907920417
 H       -11.4431349632        8.7733281654        1.8688371649
 H       -10.3688601614        9.9326804756        1.2065880188
 H        -9.1180520534        6.1667574186        4.0637442081
 H       -10.3782705311        6.2742268154        2.8691424651
 H       -11.7790152966        6.6858419056        5.2275728377
 H       -10.6405127646        5.4696985335        5.7235145837
 H       -14.2464504633        3.2069696170        2.3291341462
 H       -15.1293091275        1.9979601423        3.4515626505
 H       -13.2013754205        0.3276754800        2.7727171825
 H       -12.1776518373        1.8812152222        2.7388404529
 H        -9.3063846373       -0.3993131644        0.6416215731
 H        -8.6855971739        0.8334638142        1.2674275574
 H        -8.8414074364        1.0000243353       -0.4182310518
 H       -11.4503950031       -0.8632903001        1.6429325241
 H       -11.2195016836       -1.4242958349        0.0221426001
 H       -13.0843177405       -1.2598332455        0.6686157200
 H       -12.1555122436        1.9855948888       -1.4504939137
 H       -13.1721321591        0.7168650997       -1.6957066031
 H       -11.4941591991        0.3537724052       -2.0055630174
 H       -13.0438852761        5.5567546280        6.9311060293
 H       -12.2919713831        3.9932729049        6.7674026101
 H       -13.9563204375        4.2058968050        7.0360655780
 H       -14.7953105056        5.2389043610        3.6361423483
 H       -13.9286938818        6.5170589048        4.5564825403
 H       -14.9465176644        5.5537642442        5.5037637031
 H        -7.3093783198        7.5272654604        3.5448897137
 H        -6.9934667144        9.0026777024        4.3924255142
 H        -6.7146684635        8.9602217244        2.7043856935
 H        -8.1521173909       10.8586362276        2.9545394671
 H        -9.0108613180       10.6017849863        4.5481530468
 H        -9.7082725443       10.9781580791        2.8399776104
 H       -12.0491800505        8.7971408022       -2.3829110137
 H       -13.0818751990        7.6489156443       -3.4105111787
 H       -11.4543329031        7.8131911428       -3.5864447286
 H       -13.6805795947        5.3344842822       -2.5697682541
 H       -14.1529609694        6.7600557230       -1.6500067840
 H       -13.5975517874        5.3901161758       -0.8421602736
 H        -4.9817602175        3.5660955709       -3.2385445226
 H        -5.7170575283        2.0260772817       -3.0318617499
 H        -6.2576478626        3.3297380420       -2.0453242414
 H        -7.1482697743        2.8930404770       -6.3593889985
 H        -6.1891243448        1.8632198737       -5.6102878379
 H        -5.4569603225        3.2956963956       -5.5790246050
 H        -5.4523283972       -3.8008603107       -2.9216066414
 H        -6.8255700135       -3.1183850498       -3.8882106373
 H        -6.7744566589       -3.3550252808       -1.9237553893
 H        -5.3161194773       -0.3965043961       -1.1551654012
 H        -4.5749667294       -2.0492433101       -1.2242480313
 H        -6.2805107859       -1.8436282841       -0.6626266809
 Na      -12.1814305489        4.0721412135        0.6886212047
