117

 C        -4.0636139072       -0.7158749203       -3.1166204401
 C        -4.7874036854       -1.9945663756       -3.3360348415
 O        -4.5513386975       -2.7610322357       -4.1909865008
 C        -6.1681445910       -2.2190317122       -2.3676038484
 C        -7.2759256407       -1.2258579861       -2.7938612101
 O        -8.2167393244       -0.9505585753       -2.0105631930
 C        -7.4047410018       -0.7889303631       -4.2417619735
 C        -8.2111877306        0.5174846758       -4.4682996640
 C        -7.9426347032        1.8066768924       -3.5377965620
 O        -8.6445169169        1.9503211959       -2.5377324196
 C        -7.0294465178        2.9730327793       -3.9279878680
 C        -8.0585620419        4.0342043589       -4.1414453779
 O        -8.6138535645        4.2468326566       -5.1950762799
 C        -8.6084106019        4.6990128719       -2.8614344106
 C        -9.7706896800        5.6028065110       -3.2232094290
 C       -10.8523880181        5.5913550816       -2.1175033109
 O       -10.8798918239        4.6671620434       -1.3488774090
 C       -11.9213396649        6.7902042886       -1.9252904812
 C       -11.5945918358        7.4244834778       -0.4320535459
 O       -11.6340627614        6.7880318923        0.6344582248
 C       -11.1623795086        8.9373652605       -0.4413813821
 C       -10.6315970400        9.2164650297        0.9609671147
 C        -9.3333098378        8.5842599797        1.2367468140
 O        -8.6656568297        7.8920822694        0.5752917626
 C        -8.7495854638        8.8132027258        2.9187794126
 C        -9.7703273230        8.1386975641        3.8699282871
 O       -10.6280467702        8.7046999747        4.5661387933
 C        -9.8623515607        6.5283133514        3.6897581282
 C       -10.8919814727        6.0065205599        4.6256784857
 C       -12.1792065574        5.5414729096        3.9733324887
 O       -12.4859942988        5.5455250559        2.7968045153
 C       -13.2317638912        4.7277578505        4.9099601970
 C       -13.1300938147        3.2053606862        4.5781630223
 O       -12.7996497247        2.2852973528        5.3556551394
 C       -13.6406092209        2.5692520510        3.2276558178
 C       -12.9122511555        1.3956249696        2.5516756568
 C       -13.0419720372        1.6044354850        0.9637829248
 O       -13.8431330575        2.3381360047        0.4698167004
 C       -12.0250619316        0.7561820206        0.0921629087
 C       -10.6075314278        1.1576018549        0.3806630441
 O       -10.3459558934        2.3776412550        0.4661442174
 C        -9.5046705673        0.2037620703        0.4662724776
 C       -12.2149191838       -0.7237000344        0.4076166515
 C       -12.2669711373        1.2218068913       -1.4405994116
 C       -12.9624883175        4.9298498283        6.4394322172
 C       -14.6906341310        5.1622947240        4.4892025761
 C        -7.2474466272        8.2506911733        2.9383352114
 C        -8.5544557641       10.3363982059        3.2280323103
 C       -11.7590075796        7.8073631003       -3.0298156474
 C       -13.3551824925        6.3242751317       -1.9638391046
 C        -6.1338450584        3.2681687831       -2.7744505980
 C        -5.9594935235        2.5309597131       -5.0794796397
 C        -6.6577530525       -3.8165109902       -2.1136719971
 C        -5.7272818528       -1.8319609344       -0.9487036357
 H        -3.5532906368       -0.0589852420       -3.7946897604
 H        -3.2806153531       -1.0116037110       -2.3813574506
 H        -4.6966824826        0.1247444904       -2.7810885134
 H        -7.6898718772       -1.6001443647       -4.9581124459
 H        -6.3580650361       -0.7965832880       -4.6133484327
 H        -9.2935160402        0.3025324830       -4.2107762989
 H        -8.0494116257        0.9974011534       -5.4744530019
 H        -7.7672097166        5.2867012079       -2.5010664408
 H        -8.7756977232        3.9206638780       -2.1223831441
 H       -10.2907434885        5.1308910296       -4.0821196695
 H        -9.3416470014        6.4742467889       -3.6413848536
 H       -12.0922957424        9.4736661060       -0.6391405165
 H       -10.4100084343        9.2074631497       -1.2875572799
 H       -11.3637246076        8.7513668740        1.7107478411
 H       -10.5424852904       10.2981423608        1.2637690553
 H        -9.0089524406        5.8850317886        3.6650744079
 H       -10.3238167834        6.4903350029        2.7275081738
 H       -11.2054222154        6.8069273916        5.2965989387
 H       -10.5232870139        5.1849186211        5.2792906515
 H       -13.5785249203        3.3631682503        2.4775845718
 H       -14.6880389070        2.3025669593        3.2768777699
 H       -13.4240332523        0.4044122065        2.8519114269
 H       -11.9130748973        1.2142553030        2.7062789616
 H        -9.2671658021       -0.2962117057       -0.4340805644
 H        -9.6817660486       -0.7513322845        0.9288698766
 H        -8.5972751730        0.6769998542        0.8745247677
 H       -11.7759637109       -0.9940899117        1.3294779163
 H       -11.5656909772       -1.3819386702       -0.1978773975
 H       -13.2850994353       -0.8796427800        0.5405738907
 H       -12.2517625659        2.3654722298       -1.4704330084
 H       -13.2258724016        0.9609324288       -1.6972812124
 H       -11.6234193245        0.6986345995       -2.2138830054
 H       -13.0988753890        5.9862023714        6.7106634756
 H       -11.9091779043        4.6743868245        6.8351341452
 H       -13.5757396237        4.4027001572        7.0736860576
 H       -14.7514624565        5.2934937764        3.3854343683
 H       -14.8102421825        6.1172796922        5.0404884227
 H       -15.3369069229        4.3193917476        4.7436439232
 H        -7.0971145848        7.3948883598        2.3587747964
 H        -6.9032980423        7.9439900086        3.9390390527
 H        -6.5684626510        9.0995774435        2.6732469433
 H        -8.3243534616       10.8666728215        2.3470659588
 H        -7.7677837579       10.4341489243        3.9714285816
 H        -9.3495109535       10.9041193675        3.6498433479
 H       -10.8270110621        7.7200404862       -3.5762768061
 H       -11.8833472079        8.8708658418       -2.6949693024
 H       -12.3622149145        7.5098791437       -3.8265297223
 H       -13.6944399540        5.8382477425       -2.8864731191
 H       -13.9496762892        7.2236613353       -2.0081649260
 H       -13.5400700134        5.7601440310       -1.1029433690
 H        -5.7591930274        4.3547823135       -2.8505339306
 H        -5.2996173295        2.5392819377       -2.6449636863
 H        -6.7091346091        3.2174938919       -1.8600213584
 H        -6.3312121446        1.9893981321       -5.9378579857
 H        -5.1778905490        1.9176901375       -4.6414123047
 H        -5.4786165723        3.4087657451       -5.4160283957
 H        -5.8310186842       -4.3875597337       -1.5600517824
 H        -6.7566600242       -4.2698632901       -3.0686952111
 H        -7.5810657817       -3.5794750433       -1.5613604801
 H        -5.1783690807       -0.9139087147       -0.9396797502
 H        -4.9797473079       -2.4858356502       -0.5974222433
 H        -6.6879050969       -1.8524006558       -0.4718924322
 Na      -12.0069489239        4.1403455295        0.5706675282
