117

 C       -13.1522708675        3.0484102845      -11.0974057428
 C       -12.5827242287        2.8578616010       -9.7192493698
 O       -12.6436338306        3.6868749200       -8.8581481089
 C       -12.0513200744        1.4675303166       -9.3191979703
 C       -11.4285386268        1.3069403618       -7.9022353288
 O       -11.5313853663        0.2477960945       -7.3435746540
 C       -10.6122426339        2.3969064412       -7.2241003229
 C        -9.7928175761        1.8246575912       -6.1194825947
 C       -10.0438707056        2.1597068894       -4.6205988232
 O       -11.0598919194        2.6893377644       -4.2584432635
 C        -8.8077669736        1.9674721428       -3.5617474306
 C        -8.4134316769        3.4566113046       -3.2234942883
 O        -7.3825056910        3.9170905694       -3.6628360753
 C        -9.2612567494        4.3064320678       -2.1562289224
 C        -8.8078694335        5.7792136162       -2.0053042843
 C        -8.2399411046        6.1239840878       -0.6691651856
 O        -8.2348443697        5.2621138389        0.2024667506
 C        -7.8135927718        7.4813824883       -0.1435195263
 C        -8.9756627677        7.8766322201        0.8989213876
 O       -10.1373682402        7.4439880905        0.8982502003
 C        -8.7534956753        9.0563985327        1.9801747576
 C        -9.7640577013        8.8196786782        3.0511603782
 C        -9.3846716856        7.5295618568        3.8018164696
 O        -8.2507652456        7.1351550066        3.7729733438
 C       -10.5562228584        6.9108742566        4.6020366449
 C       -10.4985118964        5.2901953711        4.8788881899
 O        -9.8138838864        4.5246335876        4.1985123740
 C       -11.2469000221        4.9373138997        6.1597763451
 C       -11.4639856138        3.4533584385        6.3536877027
 C       -12.2458471791        2.7988538360        5.2425023762
 O       -12.8164423111        3.4490762917        4.3874486975
 C       -12.2877720749        1.2216015905        5.1847555436
 C       -11.0076422802        0.7701619352        4.4944243826
 O        -9.9858559329        0.4772848323        5.2019951775
 C       -10.8680846013        0.7069905254        3.0255120147
 C        -9.4835758396        0.3009207229        2.4634589322
 C        -8.5620307012        1.5475630843        2.4922673304
 O        -9.1397594861        2.6404035469        2.4508618890
 C        -7.0907045086        1.3572071520        2.3696312554
 C        -6.5174456704        2.3169145616        3.4897704050
 O        -6.4240078883        3.5156176502        3.3777097657
 C        -6.0310290494        1.6820569058        4.7917374223
 C        -6.5242152744       -0.0407586795        2.5115940716
 C        -6.6967607185        1.9265329192        0.9229898815
 C       -12.4915480841        0.6604945074        6.6474360985
 C       -13.4392836856        0.8307421442        4.2416581110
 C       -10.4985705507        7.6010884172        6.0286470028
 C       -11.9571547640        7.2284289124        3.9869225504
 C        -6.4857072172        7.4763725673        0.6163544654
 C        -7.7533615475        8.5212542202       -1.2686023506
 C        -9.3464180284        1.1650025917       -2.3820984542
 C        -7.6448856552        1.1686021636       -4.1815302415
 C       -13.1368887463        0.3548984216       -9.5205612914
 C       -10.8052907985        1.1640564279      -10.3054175475
 H       -13.6233440427        3.9598811050      -11.4518922333
 H       -14.0783989673        2.5647364168      -11.0947915607
 H       -12.5634971858        2.6532146611      -11.9126429596
 H       -11.4235856790        3.1085735156       -6.9277567486
 H        -9.9931505670        2.9275583732       -7.9541841124
 H        -8.7566013387        2.1021285564       -6.1892582101
 H        -9.6648458673        0.7409411090       -6.2398287123
 H        -9.1577497835        3.8387545828       -1.2438266825
 H       -10.2389501100        4.1896300437       -2.5461758037
 H        -9.5910875715        6.4312915371       -2.2868900682
 H        -8.0802713389        5.8849621977       -2.8424368238
 H        -8.8902216892        9.9774598976        1.3607943819
 H        -7.8070822305        9.2349316322        2.3689455179
 H       -10.7243514758        8.6228647723        2.5733972768
 H        -9.9978862957        9.7491499400        3.5937329432
 H       -12.0834236532        5.5901012524        6.3451791596
 H       -10.5287281522        5.2127110975        6.9276103196
 H       -11.7960769601        3.1677043906        7.3209862630
 H       -10.5384064902        2.9452465882        6.3550492416
 H       -11.2034060839        1.7057504012        2.6972798274
 H       -11.5776537071        0.0260524717        2.5509429866
 H        -9.5638028735        0.2265551917        1.3779454605
 H        -9.0888823021       -0.6412805413        2.8723812429
 H        -5.7644278167        2.4324313765        5.5265986122
 H        -5.1868022223        1.0546976696        4.5785581065
 H        -6.7207719994        0.9224775909        5.1736933374
 H        -6.9385759214       -0.8117720630        1.9576993502
 H        -6.4237999194       -0.4061528061        3.5317356056
 H        -5.4747836183        0.0364700216        2.0092148276
 H        -7.4908579750        2.7830245779        0.7170861841
 H        -6.8240651916        1.1334297320        0.1810704379
 H        -5.7007757387        2.1882628023        0.9163076561
 H       -11.5302515570        0.2240563729        7.0059849463
 H       -13.1932885299       -0.1365309479        6.5824861352
 H       -13.0399757104        1.2964908628        7.3154029610
 H       -14.2907838003        0.2956044058        4.6632299167
 H       -13.1752868801        0.1919485718        3.3380518692
 H       -13.7575083323        1.7105931030        3.6735089840
 H        -9.9326885873        8.5715048207        5.9486759355
 H        -9.9082153720        7.0285150286        6.7430876355
 H       -11.4630213626        7.7675429502        6.5397289361
 H       -12.1777173076        6.9730368147        2.9304548454
 H       -12.0644334341        8.3712337755        4.1385273611
 H       -12.7380281309        6.9096827564        4.7090487252
 H        -5.8902354406        8.3857676978        0.4231517222
 H        -5.8101533084        6.6822549227        0.1517383953
 H        -6.6072701083        7.1231922702        1.5846350021
 H        -6.9745234812        8.1136486124       -2.0237014735
 H        -7.2872373075        9.4348954222       -0.7994722346
 H        -8.6461604478        8.6513949362       -1.8264860712
 H        -9.6922288804        0.2198211603       -2.7559328342
 H       -10.0782709749        1.7767595282       -1.9129561710
 H        -8.5733143921        1.0542098287       -1.6386723748
 H        -7.9537632965        0.1567647770       -4.5637198627
 H        -6.8022270455        1.0857132965       -3.4575361741
 H        -7.2849177421        1.7069689693       -5.0555061500
 H       -13.5400940649        0.1699273142       -8.5754586314
 H       -12.7897064355       -0.5590201945       -9.9211334940
 H       -13.8166944973        0.7785588184      -10.2963310807
 H        -9.9565644631        1.8616267509      -10.2667308043
 H       -11.3211368059        1.0702303503      -11.2938462502
 H       -10.4337954808        0.1241304048      -10.0104709018
 Na       -8.1243105872        4.9494106301        2.4553801630
