117

 C        -3.7065907802       -2.4393679029       -1.8316457937
 C        -5.1176145003       -2.9711066568       -2.4027007608
 O        -5.1868440437       -3.2747224839       -3.5425621362
 C        -6.4771623298       -2.9876568877       -1.6056958043
 C        -7.5422519699       -1.8957462133       -2.2757114639
 O        -8.5661680781       -1.7903768736       -1.6410410755
 C        -7.3446846476       -1.1715417239       -3.5741090285
 C        -8.1846667677        0.0292997273       -3.7300968237
 C        -8.0325699088        1.3096423213       -2.9049664431
 O        -8.7757843890        1.6432445502       -2.0749181518
 C        -7.1464181293        2.5424863802       -3.4982189212
 C        -8.1750502690        3.5958254241       -4.1202352015
 O        -8.4133602798        3.6475130601       -5.3226722901
 C        -8.8241667965        4.5095160993       -3.1557750305
 C        -9.7814355302        5.5770829529       -3.6677123093
 C       -10.6835747084        6.0985984929       -2.4768926277
 O       -10.4893528307        5.4886281689       -1.4594841881
 C       -11.6073302333        7.2576592340       -2.3775211860
 C       -11.5839293566        7.9902723612       -0.8905803683
 O       -11.7169759554        7.3129850164        0.1054459908
 C       -11.3424776382        9.4802412965       -0.8658253122
 C       -10.8001086730        9.7121108897        0.5317206745
 C        -9.4065987864        8.8357718986        0.7616427146
 O        -8.9293500135        8.2784593824       -0.1443063785
 C        -8.7628973094        8.6398093662        2.0423391308
 C        -9.8345477615        8.0555348776        3.1878337029
 O       -10.3360875951        8.6306152086        4.1119146592
 C       -10.0882887080        6.5384493257        3.0047751580
 C       -10.9257455329        6.0093520525        4.1627529879
 C       -12.2579222425        5.5579460667        3.7823357618
 O       -12.6545397978        5.4575233946        2.6467161391
 C       -13.1429891937        4.8490502190        4.7910978340
 C       -12.9138520375        3.3325907384        4.1825768192
 O       -11.8148979883        2.8332367974        4.3785778654
 C       -14.1936503084        2.6562565732        3.6451721907
 C       -13.6532191478        1.5748753587        2.6889538575
 C       -12.8614331541        2.2140707038        1.4555041015
 O       -13.1198275984        3.3509141370        1.1757874051
 C       -11.9763258128        1.4393818883        0.4095188369
 C       -10.3467750292        1.6251533498        0.5904957994
 O        -9.8642918649        2.7615443350        0.7090691273
 C        -9.3537192500        0.3799715965        0.4704121560
 C       -12.2733363053       -0.0465706362        0.5704214718
 C       -12.2510015305        2.1027530457       -1.0630327726
 C       -12.5738178032        4.8973781209        6.2634256456
 C       -14.6142417846        5.2521825071        4.8394220498
 C        -7.5880122560        7.6468704162        1.9183607623
 C        -8.2027434765        9.8752094026        2.6208565467
 C       -11.5353744075        8.2485995741       -3.6212424949
 C       -13.0807201038        6.7310819281       -2.4059857343
 C        -6.2579711609        3.1213212610       -2.4438964254
 C        -6.3111431063        2.2362653020       -4.8007840150
 C        -7.0092115670       -4.4421648578       -1.6295327017
 C        -6.4314631563       -2.5983054151       -0.1587039438
 H        -2.9124958983       -2.7380219854       -2.4201629087
 H        -3.4364948885       -2.9630797154       -0.8541669072
 H        -3.4865585936       -1.3562731729       -1.7147816986
 H        -7.6283335881       -1.6411120892       -4.4846659896
 H        -6.2465607215       -0.8969441404       -3.7126201005
 H        -9.2141925892       -0.1715259126       -3.6501563914
 H        -8.0904298537        0.3448877170       -4.7301546661
 H        -8.0750408009        4.9300978585       -2.4944733136
 H        -9.3360804526        3.8010288035       -2.4444631764
 H       -10.5527413358        5.2269999092       -4.3875513409
 H        -9.2111178480        6.3983614626       -4.1045746810
 H       -12.2828682968       10.0240724757       -1.0871163217
 H       -10.5318457848        9.7299116577       -1.6063645310
 H       -11.5474591908        9.1973436633        1.0694565975
 H       -10.8734144904       10.7146769021        0.7951560915
 H        -9.1519757929        5.9607798918        2.8951176329
 H       -10.5663730961        6.4362686951        1.9848092759
 H       -11.2206410850        6.8676207893        4.7498461655
 H       -10.4651917244        5.2352095394        4.8267560456
 H       -14.9126314449        3.3118189731        3.1481347222
 H       -14.8192866163        2.1089703314        4.4285277547
 H       -14.4973982726        1.0498069926        2.1006499831
 H       -13.2276372912        0.6516444690        3.0891381831
 H        -9.6559061540       -0.4192516807       -0.1309344363
 H        -9.2318714925       -0.1284239647        1.3692656021
 H        -8.3732826647        0.5801576071        0.0586390773
 H       -12.2571187036       -0.2649773200        1.6049608460
 H       -11.7950171659       -0.7453874514       -0.0614867956
 H       -13.3008118810       -0.3089661470        0.2416077350
 H       -12.1283051619        3.2390881131       -1.0275222672
 H       -13.3109359270        1.9268735695       -1.3783856933
 H       -11.5599512454        1.8599020228       -1.8560421683
 H       -12.3771661780        5.9465299404        6.5307151555
 H       -11.5518376997        4.4051437722        6.2426901864
 H       -13.1676874575        4.4905916525        6.9998550828
 H       -14.9681473701        5.3465869856        3.8185799887
 H       -14.6650719736        6.1891402188        5.3900454468
 H       -15.2645987352        4.5737956337        5.4300442275
 H        -7.5699949211        7.1589231234        1.0095637001
 H        -7.5278305752        6.9504295001        2.7391357321
 H        -6.6124138493        8.1773827331        1.8877213147
 H        -7.4928713522       10.3550955475        1.9301832970
 H        -7.3013561764        9.5586152608        3.2742134013
 H        -8.8844927705       10.4762241230        3.1988597936
 H       -10.8178905640        7.9484775166       -4.4322919991
 H       -11.1641379776        9.2819739208       -3.3667990234
 H       -12.5596207270        8.4045749969       -3.9291491819
 H       -12.8932486174        6.0208443658       -3.2209193411
 H       -13.8084766757        7.5242438371       -2.6116425022
 H       -13.3505824467        6.1592528753       -1.5376492512
 H        -5.8202504067        4.0728278500       -2.7984216582
 H        -5.4077460590        2.4898380680       -2.2895463894
 H        -6.8369945970        3.2482482960       -1.5510936405
 H        -6.8634079237        1.6642562067       -5.6000953198
 H        -5.3377430396        1.7090852172       -4.3765261102
 H        -6.1349495939        3.1896452499       -5.3603349127
 H        -6.3411529880       -5.0302512225       -0.9774489913
 H        -6.9679381446       -4.7696879323       -2.6011732745
 H        -8.0735352329       -4.3887805405       -1.5697520570
 H        -6.4584522458       -1.5127922157       -0.2220864298
 H        -5.7294788733       -3.1623236049        0.4281722425
 H        -7.4418504721       -2.8587632244        0.2083886972
 Na      -11.5298189195        4.6142868662        0.5626177508
