117

 C        -3.9706534205       -3.1760311944       -1.3666096221
 C        -5.1611522340       -3.1202263873       -2.1898359051
 O        -5.3507131452       -3.1191742175       -3.4655381811
 C        -6.5705695653       -3.0910037796       -1.4149280118
 C        -7.6072957138       -2.0515183973       -2.0234617057
 O        -8.7596928713       -1.9858510060       -1.5873295021
 C        -7.1807334048       -1.1735878796       -3.1463349308
 C        -8.3140160277       -0.1164564691       -3.6900414105
 C        -8.0048466038        1.3057269571       -3.0537171499
 O        -8.8487129217        1.6987975757       -2.1560920234
 C        -7.0938435526        2.4358295033       -3.6709375368
 C        -8.1638644256        3.5630605556       -4.2757455898
 O        -8.7545570052        3.4336580872       -5.3065932416
 C        -8.8140262501        4.4501816497       -3.0607815079
 C        -9.6066140920        5.6864885871       -3.4387478798
 C       -10.5890490712        6.0551067175       -2.3419852906
 O       -10.6158090243        5.4186836157       -1.2995623766
 C       -11.6030124174        7.3188507908       -2.5204507218
 C       -11.6428815713        7.9454878613       -1.0565282947
 O       -11.9834930482        7.2228075611       -0.1389429159
 C       -11.3188257530        9.5556839761       -0.7853607463
 C       -10.4807505045        9.8276800789        0.4768342699
 C        -9.2826125697        8.9588579893        0.5169349265
 O        -9.0255794637        8.2071988411       -0.5015582398
 C        -8.4873715234        8.6311221005        1.8389904764
 C        -9.5764498391        8.0978530746        2.9465003310
 O       -10.2606222865        8.8492077566        3.6604493521
 C        -9.9598066513        6.6269296223        2.7735336043
 C       -10.7858901498        6.1350090731        3.9724600605
 C       -12.3434599685        5.6406028605        3.7177839125
 O       -12.8721612598        5.8385536072        2.6201380248
 C       -13.1216479493        4.7690283829        4.7869432088
 C       -13.0452529953        3.2023958195        4.1759262163
 O       -11.9457706166        2.6421864555        4.0816985717
 C       -14.2825073008        2.3849097171        3.6433144986
 C       -13.7306102563        1.4195024870        2.5713726823
 C       -12.8918569514        2.3197707767        1.5855666458
 O       -13.1883717027        3.5357879304        1.4523473270
 C       -11.9545508019        1.5651188242        0.6011734705
 C       -10.4287091192        1.9746040666        0.8829638382
 O       -10.1419855779        3.1350235175        0.9097532512
 C        -9.4414982268        0.8813482680        0.9051922615
 C       -12.1986228806        0.0639951053        0.4557205297
 C       -12.1435387811        2.0322826451       -0.9312167805
 C       -12.3191230880        4.8010454568        6.1657369023
 C       -14.5416171112        5.4435787996        4.9644270807
 C        -7.1645446435        7.6978127555        1.7931821755
 C        -8.2132583778       10.0790820803        2.4620248946
 C       -11.2249652219        8.1724740288       -3.6625100422
 C       -12.9262666244        6.5420517239       -2.8287890899
 C        -6.2093532465        3.0350133696       -2.4765377123
 C        -6.1290679632        1.8627386018       -4.8081621549
 C        -7.1857030478       -4.5557891773       -1.6380853152
 C        -6.4355836166       -2.8123334977        0.1482675034
 H        -3.1367581982       -3.9046657523       -1.7252922247
 H        -4.0182300896       -3.3275147946       -0.3226351768
 H        -3.4962981428       -2.1353378789       -1.4132082637
 H        -6.6536060879       -1.7548095693       -3.9723349254
 H        -6.4621562125       -0.4666864383       -2.7327879483
 H        -9.3870115237       -0.3726687049       -3.4446221311
 H        -8.4010025567        0.1904778013       -4.7846669380
 H        -8.1182412146        4.7485560944       -2.2382065893
 H        -9.4132407776        3.6675347970       -2.5849505616
 H       -10.1023684584        5.6529476250       -4.3986105225
 H        -8.9085263944        6.5395863170       -3.4092315155
 H       -12.3123344472       10.0119792360       -0.8165087988
 H       -10.6915085151        9.9942134295       -1.5820121360
 H       -11.0843680544        9.7158347277        1.4186746192
 H       -10.0912756566       10.9102170612        0.4447530730
 H        -9.1375175788        5.9364082739        2.5702258276
 H       -10.4944943860        6.6825261906        1.8161907241
 H       -10.8145387223        6.9312996722        4.7553291566
 H       -10.3007115193        5.2544750397        4.3190385424
 H       -15.0339988856        2.9782478883        3.1774220943
 H       -14.8312175900        1.8477273797        4.3960860686
 H       -14.3944901539        0.7263755669        2.2027554887
 H       -12.8922062994        0.7673754506        2.9707344724
 H        -9.2946062465        0.4478035546       -0.1499796730
 H        -9.6979337672       -0.0487053304        1.5193767249
 H        -8.3866478974        1.1634122747        1.0867647298
 H       -11.8125688910       -0.5133480529        1.2605655633
 H       -11.8758601498       -0.5381085754       -0.5151023493
 H       -13.1814951981       -0.2160308026        0.2294814616
 H       -11.7516263593        3.0024123630       -1.2595797670
 H       -13.1300076138        2.0145149187       -1.1702535517
 H       -11.5872584597        1.3650033017       -1.6789972449
 H       -12.1642282047        5.8607662248        6.4710288413
 H       -11.4149501796        4.2045068568        6.3177742653
 H       -13.0811420057        4.3610448814        6.9476899409
 H       -15.2047726953        5.2615364945        4.1261641918
 H       -14.5286386443        6.5201356075        5.1896307795
 H       -14.9498543416        5.0752012633        5.9422125059
 H        -7.4303282473        6.6841972919        1.3508206695
 H        -6.7322370311        7.5590588329        2.7738732949
 H        -6.3761846504        8.0398242287        1.1188267724
 H        -7.2520003136       10.4219932000        2.2255605976
 H        -8.1236590937       10.0718367847        3.4850367612
 H        -9.0840760651       10.7283901761        2.2243198600
 H       -11.7076336353        7.8138138697       -4.5603138456
 H       -10.2142572654        8.0901809038       -3.9558464875
 H       -11.2645631188        9.2287474222       -3.3468101428
 H       -13.3188175987        6.4637896819       -3.8522684658
 H       -13.5203499883        6.9752956510       -2.0108645818
 H       -12.7857555604        5.5112868251       -2.4883522639
 H        -6.2561433192        4.1171536643       -2.4175069920
 H        -5.1258521649        2.9002127987       -2.6251069665
 H        -6.5883405815        2.5819767963       -1.5916713047
 H        -6.5259545191        2.0484436458       -5.7982892571
 H        -5.9025893468        0.9134577729       -4.6448662651
 H        -5.2432832295        2.4813158817       -4.6975816218
 H        -6.5042574950       -5.2695716223       -1.2551518459
 H        -7.4742924969       -4.7260420968       -2.7137906750
 H        -8.2062067752       -4.5421825042       -1.0704666283
 H        -6.3136366980       -1.7227504248        0.2439836482
 H        -5.7935635696       -3.5634285499        0.6109033357
 H        -7.4343226008       -2.9355009744        0.5812595594
 Na      -11.5496600634        4.8934561655        0.5642967200
