117

 C        -4.0136728740       -3.7400475399       -1.2031720199
 C        -5.2985132403       -3.3270727617       -2.0727620308
 O        -5.1452331851       -3.0980044008       -3.2193675679
 C        -6.6940552697       -3.2297497493       -1.2320621544
 C        -7.7453230838       -2.0826884226       -1.8613842918
 O        -8.9024958148       -1.9922870484       -1.5819474693
 C        -7.1752571126       -0.9860622418       -2.6783263652
 C        -8.1841099529       -0.2932525271       -3.5658301298
 C        -8.1445668077        1.1967981207       -2.9492193113
 O        -8.7803698837        1.5366133663       -2.0517612898
 C        -7.1979032196        2.2630822917       -3.7169081012
 C        -8.1658388489        3.5289108250       -4.1313943536
 O        -8.6921152369        3.4710930125       -5.2422712380
 C        -8.6475249089        4.3436945715       -2.9658035657
 C        -9.3603168880        5.6286574845       -3.4253379550
 C       -10.4227310521        5.9594254370       -2.3757208868
 O       -10.5397849046        5.2206638544       -1.4367050509
 C       -11.4451131011        7.1783942253       -2.4622171469
 C       -11.7407256481        8.0166267854       -1.2030645563
 O       -12.1982488789        7.4320142230       -0.2475707953
 C       -11.4188350836        9.4597743887       -0.9766516410
 C       -10.4248608029        9.7126127500        0.1947134478
 C        -9.1400248018        8.6641118214        0.2456823431
 O        -8.7367501798        7.9566667760       -0.6031628620
 C        -8.4517414908        8.8400068269        1.7157615358
 C        -9.5231153103        8.1896969190        2.7617168059
 O       -10.2035049004        8.9042444006        3.4397695306
 C        -9.9898880669        6.6582733134        2.6091701010
 C       -10.7381100166        6.0641248558        3.8241582350
 C       -12.2188231423        5.6945632402        3.5141518692
 O       -12.8274256225        6.1407512458        2.5864266117
 C       -13.0256795367        4.7150654719        4.7725475902
 C       -12.8345996570        3.2061721471        4.1550788161
 O       -11.7408857548        2.7346402567        4.2049890650
 C       -14.2102963808        2.5106277066        3.6280188411
 C       -13.8761780862        1.5200618470        2.5853443640
 C       -13.0372753698        2.3045525451        1.4395749582
 O       -13.1287055313        3.4865983659        1.3352533325
 C       -12.0128845315        1.5735154822        0.4690186401
 C       -10.5985795636        2.1673682171        1.0438626276
 O       -10.5439087166        3.3888056171        1.3147300119
 C        -9.4147261862        1.2789792708        1.3303725051
 C       -12.0288196467        0.0290862276        0.5757863162
 C       -12.3199178878        2.1434758847       -0.8858519824
 C       -12.2006755829        4.6041833951        6.0370089324
 C       -14.4401919753        5.2692388477        4.7878840159
 C        -7.1847284596        7.9578106585        1.5469994073
 C        -7.9946603449       10.2658622163        2.1261501241
 C       -10.9115416298        8.2488059707       -3.5916682188
 C       -12.8114449189        6.5919065010       -2.8522903639
 C        -6.2865876608        2.7355231504       -2.5971798175
 C        -6.4774679040        1.7855906805       -4.9669170574
 C        -7.5089910880       -4.5104891075       -1.6061442120
 C        -6.5851931135       -2.9173195141        0.3196525024
 H        -3.4058846620       -4.3133685852       -1.8276886123
 H        -4.2807838515       -4.3520259093       -0.2562751053
 H        -3.4427138211       -3.0240000519       -0.6635510973
 H        -6.3872810621       -1.3590237058       -3.2992223940
 H        -6.8179480526       -0.2090910107       -1.9674591538
 H        -9.1477290245       -0.7611948423       -3.3589771145
 H        -8.0203409050       -0.2957448380       -4.5988369717
 H        -7.8586324242        4.5351787305       -2.2843782443
 H        -9.2858735379        3.5908497908       -2.4696908725
 H        -9.7742368591        5.3483710703       -4.4264912914
 H        -8.7049985359        6.4977674531       -3.5375431974
 H       -12.4099840207        9.9520202677       -0.7582398953
 H       -11.0915597313       10.0182679344       -1.8025624057
 H       -11.0742667174        9.6374231253        1.0691635653
 H       -10.0977147932       10.7346601747        0.1697905473
 H        -9.1546959290        6.0457509069        2.2978803315
 H       -10.6547175851        6.6775164472        1.7612438237
 H       -10.8634368334        6.8430571154        4.5594674866
 H       -10.2100144270        5.1757819194        4.2621811379
 H       -14.9679921990        3.3260693497        3.2261998416
 H       -14.7692459801        2.0438825621        4.4941191647
 H       -14.8002489529        1.0657812148        1.9755982867
 H       -13.3476882116        0.6837605232        2.9597977259
 H        -8.5967575153        1.3694021745        0.6776690066
 H        -9.5767734123        0.2362286903        1.4739812346
 H        -8.9816870801        1.6556945078        2.2468589245
 H       -11.8863242996       -0.3802965588        1.6285145143
 H       -11.2910591340       -0.4942975037        0.0693423817
 H       -12.8207698104       -0.5193638411       -0.0066232090
 H       -12.4925521627        3.1970990137       -0.9419527320
 H       -13.2910427437        1.6630706914       -1.3651347019
 H       -11.5167839844        2.0285213461       -1.5045552969
 H       -12.0653188589        5.5184524207        6.5875012217
 H       -11.2845212942        4.1458887473        5.7424646178
 H       -12.5621360081        3.8425281543        6.6317838226
 H       -14.8211053039        5.5549604798        3.7548550011
 H       -14.4549335989        6.2652982577        5.3043543537
 H       -15.1042411205        4.7150361649        5.4088791267
 H        -7.4043037308        6.9326132095        1.7170737042
 H        -6.4357207309        8.2518191778        2.3269922895
 H        -6.6520826791        8.0077837461        0.6052593459
 H        -7.0839821999       10.7112398041        1.5139860617
 H        -7.6536237765       10.1278338014        3.1989367679
 H        -8.8444944414       10.8900738256        2.1576712368
 H       -11.6879635804        8.4575764173       -4.2735167353
 H       -10.1490365120        7.8998994028       -4.3198289109
 H       -10.3354726493        9.0279043008       -3.1557157437
 H       -13.0338397743        7.2296336883       -3.6555519756
 H       -13.4721349722        6.6359161931       -2.0353388334
 H       -12.7467528072        5.6317747033       -3.3879916795
 H        -5.4662212512        3.2614909805       -3.0544763195
 H        -5.7916543886        1.8655380860       -2.1612233575
 H        -6.8624786624        3.2727240078       -1.7658478951
 H        -7.3680775176        1.7513404822       -5.6126115650
 H        -6.1780158195        0.6674973133       -4.7936210351
 H        -5.5339044131        2.3546296623       -5.2289963808
 H        -6.9258836608       -5.4366265904       -1.1667199910
 H        -7.5886530519       -4.5556285503       -2.7220418961
 H        -8.4372203342       -4.4565912959       -1.1032139029
 H        -5.7447442715       -2.3723264685        0.6435083178
 H        -6.7392151930       -3.9367674967        0.7007394360
 H        -7.4371196025       -2.2976558532        0.5822679560
 Na      -11.9151220913        5.3702425526        0.7528655449
