117

 C        -4.1423278260       -4.0396858644       -1.1308772094
 C        -5.3661664865       -3.4311308588       -1.8720188231
 O        -5.1537289236       -3.0835657613       -3.0530429017
 C        -6.7999567659       -3.2664690472       -1.2244848080
 C        -7.6677882105       -2.1217122227       -1.7473197213
 O        -8.8828644322       -2.1168817251       -1.5267982510
 C        -6.9720861957       -0.9581071384       -2.5165345655
 C        -8.2212620568       -0.2478666500       -3.4435010208
 C        -8.2567507062        1.1984774058       -3.0618490667
 O        -8.8326653500        1.4206489309       -1.9389888579
 C        -7.2864357330        2.1847193837       -3.7001561326
 C        -8.1456995052        3.4308131505       -4.0319630589
 O        -8.5444982714        3.5781089403       -5.1586293538
 C        -8.5847015470        4.4491467634       -2.9799390542
 C        -9.4450149487        5.6105832683       -3.3943254157
 C       -10.4501956756        5.9286057358       -2.2586108060
 O       -10.6271502635        5.1911337071       -1.2991526710
 C       -11.4208642721        7.1850199463       -2.5805973125
 C       -11.6333149806        7.9902622666       -1.2940038445
 O       -12.2930454372        7.4710267440       -0.3591325715
 C       -11.3760643144        9.5875081896       -1.1002752154
 C       -10.3476164781        9.6808346224        0.0645886382
 C        -9.1512049332        8.8082157053        0.2339725036
 O        -8.8213985423        7.9569036685       -0.6064176628
 C        -8.4285117063        8.7843490137        1.6847290211
 C        -9.4736762814        8.2101429419        2.7099585514
 O       -10.1758754183        8.9089242422        3.4556447975
 C        -9.9347418313        6.7669700125        2.5029069074
 C       -10.5875825431        6.1947260226        3.7693371697
 C       -12.1089723548        5.7350457874        3.6629888871
 O       -12.7992314558        6.1779606514        2.7164497030
 C       -12.7817688571        4.7780242316        4.5925607899
 C       -12.7885736106        3.2187711151        4.1007220956
 O       -11.7572231226        2.6130959624        4.0868298960
 C       -14.0015173469        2.6201050362        3.5591398043
 C       -13.8497373990        1.5623458161        2.4823325686
 C       -13.1095947339        2.3221503025        1.4251562283
 O       -13.3575335189        3.5075242024        1.3064296280
 C       -12.0116808660        1.6596057833        0.5768019729
 C       -10.7051776643        2.3198890249        1.2648848258
 O       -10.7171715040        3.5440302987        1.3654580124
 C        -9.4836770170        1.5396594259        1.5166932302
 C       -11.9712729620        0.1018308225        0.5417041383
 C       -12.2364325007        2.0404610017       -0.8507815586
 C       -12.1615740359        4.8559459783        5.9891645224
 C       -14.3542315727        5.2023667021        4.7656329795
 C        -7.0175499268        7.8162336516        1.5227298340
 C        -8.1068142875       10.2375283487        1.8690274521
 C       -10.6994178105        8.1497112486       -3.6665402251
 C       -12.7412999164        6.5562982008       -2.9991333312
 C        -6.0738394219        2.5248138924       -2.6030396534
 C        -6.7534065825        1.7564383866       -5.1365746108
 C        -7.6446742798       -4.5885333896       -1.5191402789
 C        -6.7027088584       -3.0426728925        0.3205949225
 H        -3.2785831904       -4.3917062110       -1.7567093968
 H        -4.4925578527       -4.7878233708       -0.4846426948
 H        -3.8267797506       -3.4731944551       -0.2843897001
 H        -6.1935221751       -1.3361864575       -3.2679214053
 H        -6.5809209832       -0.3363527338       -1.7637943372
 H        -9.0831120159       -0.6896479682       -2.9836110096
 H        -8.2168545271       -0.4483428349       -4.4958208875
 H        -7.6334080601        4.8994050047       -2.5522658555
 H        -9.0240345422        3.8189695965       -2.1888583506
 H        -9.8774351568        5.4296153991       -4.3937108190
 H        -8.8285527684        6.5122886321       -3.4745038780
 H       -12.2930932257       10.2407375076       -0.7281612380
 H       -11.0189494456       10.2080761312       -1.9546762231
 H       -11.0043895933        9.5366126486        0.9065131765
 H       -10.0312690516       10.6629706021        0.1560596632
 H        -8.9637757706        6.2133294393        2.2456136390
 H       -10.5759630510        6.7174522764        1.6064466952
 H       -10.4503035231        6.9048675527        4.5909786038
 H       -10.0853732566        5.2401739762        3.9946308220
 H       -14.7156867236        3.4356769080        3.2827791821
 H       -14.4350923937        2.1500412223        4.4083232647
 H       -14.7761617640        1.3013909988        1.8782839577
 H       -13.3596960185        0.6380096211        2.7788421053
 H        -8.6832437897        1.7779015233        0.8507558701
 H        -9.6242710661        0.4577834529        1.4280616634
 H        -9.0369213296        1.6643108866        2.4288847974
 H       -11.8110748298       -0.3969998553        1.3712375172
 H       -11.1571921809       -0.3100216488       -0.0994331531
 H       -12.7641081099       -0.3374619125        0.0911784638
 H       -12.6582982473        3.0085257847       -1.1899798550
 H       -12.9496124326        1.3510949907       -1.2756164044
 H       -11.1901774721        1.8840620600       -1.4166010621
 H       -12.4728314193        5.8169245749        6.3363888755
 H       -11.1592145635        4.6715679783        6.0268092012
 H       -12.5621654856        4.0349888719        6.6459347551
 H       -14.7118171196        5.7523353087        3.8593944333
 H       -14.5458657974        5.9324728516        5.5399391456
 H       -14.9520703224        4.3744286141        5.0576455330
 H        -7.1603743395        6.7103118352        1.5564674391
 H        -6.4010101955        8.0725150917        2.4019248844
 H        -6.4175761818        8.0734875281        0.7263987917
 H        -7.6953056412       10.6661833661        0.8843650811
 H        -7.3658568508       10.3624216012        2.6737385113
 H        -9.0829305584       10.7667829289        2.2127137776
 H       -11.2954076881        9.0523855815       -3.7841847513
 H       -10.7412787335        7.7658986230       -4.6729566138
 H        -9.6143515064        8.2052834282       -3.4242317694
 H       -13.4084406252        7.2728793414       -3.4275845557
 H       -13.0718093613        6.0204396933       -2.1488507798
 H       -12.4315512554        5.9663466482       -3.9097660715
 H        -5.1916291974        2.6724772929       -3.1417006578
 H        -5.8909988916        1.5603584841       -2.1315780455
 H        -6.3358492615        3.2888711359       -1.8248547825
 H        -7.6565080379        1.2014107023       -5.5531496018
 H        -5.9316035743        1.0720023362       -5.0163005311
 H        -6.2981272120        2.6955568951       -5.6482465688
 H        -7.1839953887       -5.2557515003       -0.8776578638
 H        -7.6183719332       -4.9534512266       -2.5611700634
 H        -8.5846832917       -4.5025103829       -0.9758225919
 H        -5.7388712950       -2.7140340024        0.6763203286
 H        -6.9356534813       -4.0585090432        0.6774147644
 H        -7.4088814293       -2.2767704236        0.6549749888
 Na      -12.1293074770        5.3659897321        0.6526042569
