117

 C        -4.5771968145       -4.9425697869       -0.8620064016
 C        -5.4358710193       -3.8947004452       -1.4846625161
 O        -5.0152882214       -3.3608013582       -2.5036836447
 C        -6.9491169003       -3.6044770289       -1.0186111972
 C        -7.7968206747       -2.3982041250       -1.3978111356
 O        -8.9987974155       -2.4680786186       -1.3002540827
 C        -7.2258353607       -1.2094724413       -2.2653774294
 C        -8.3130146080       -0.3520084584       -3.0357683709
 C        -8.1061144257        1.1562015722       -2.8823873996
 O        -8.7963094755        1.6928973134       -2.1033715043
 C        -7.2325196161        2.0733795401       -3.7333515955
 C        -8.0345286959        3.4816934503       -3.8487756913
 O        -8.2625584360        3.9130242479       -4.9721467902
 C        -8.3702298368        4.3293391918       -2.5337444484
 C        -9.3598276517        5.4227406537       -3.1019201239
 C       -10.4322493849        5.9965789689       -2.1970148260
 O       -10.6943312903        5.4665386955       -1.1192882691
 C       -11.3487710892        7.1537030651       -2.8668128088
 C       -11.6091763804        8.1665536105       -1.6725174945
 O       -12.2667195629        7.6580794389       -0.7441497798
 C       -11.2564550168        9.6009079569       -1.4932343976
 C       -10.5183309943        9.6549559588       -0.0608413086
 C        -9.3234699978        8.7392895123        0.0760352719
 O        -9.0385457090        7.8216320617       -0.6724016436
 C        -8.3783309992        8.7680953023        1.5127546033
 C        -9.3646777425        8.2317524321        2.6112953974
 O        -9.7180352062        8.9382075304        3.5709161785
 C        -9.8813193401        6.7536581332        2.4021262362
 C       -10.4064648118        6.1503321649        3.7282336717
 C       -11.9084071750        5.7454590554        3.5361922146
 O       -12.6143322285        6.0699369660        2.5709767423
 C       -12.6528757225        4.9785786313        4.6029166171
 C       -12.6317654704        3.4843430437        3.9841559807
 O       -11.5225242399        3.0013811093        4.0060571420
 C       -13.9833350779        2.7671927972        3.6975509881
 C       -13.7623054794        1.7694448644        2.5803274797
 C       -13.3243207354        2.4707163348        1.1743360881
 O       -13.9943225881        3.2726255026        0.6006248623
 C       -11.9102885228        1.9464622657        0.7022071274
 C       -10.8050841495        2.8045091985        1.3353235158
 O       -10.9640054195        4.0517768038        1.3014407570
 C        -9.5928100560        2.1451027367        1.8700642857
 C       -11.7929100399        0.4196876851        0.8116665807
 C       -11.8138049453        2.2669206367       -0.8011117830
 C       -11.7503460430        4.8401373890        5.9372698415
 C       -14.0712812656        5.6269294789        4.9760234967
 C        -7.1066443691        7.8275149545        1.2810378355
 C        -7.9777651492       10.2941436456        1.8200305122
 C       -10.7202501595        8.0397224108       -3.9951500340
 C       -12.7147668497        6.4738504335       -3.2555616262
 C        -5.8231088448        2.2990106397       -3.1327853432
 C        -7.1985066250        1.4638141611       -5.2627556295
 C        -7.6834561616       -4.9581663386       -1.2107901430
 C        -6.9040948307       -3.3859035448        0.5818784174
 H        -3.6427403157       -4.7005504242       -1.4084782896
 H        -5.0182096975       -5.9529370125       -1.1064416049
 H        -4.5446021235       -5.1985683386        0.1530456399
 H        -6.6259996405       -1.7316467808       -3.0302861906
 H        -6.6561998535       -0.4801854157       -1.6701803856
 H        -9.2393268434       -0.4964382782       -2.3979475610
 H        -8.4256673423       -0.7223404378       -4.0122971025
 H        -7.4905466730        4.8636645749       -2.2353514498
 H        -8.8070381939        3.7749598914       -1.7067874928
 H        -9.9317587621        4.9577164774       -3.9337219837
 H        -8.8456080145        6.2139147383       -3.6364285358
 H       -12.1573220907       10.2001209947       -1.3828302105
 H       -10.6361437791       10.0943602000       -2.1382139205
 H       -11.2321672009        9.3926769580        0.7967534981
 H       -10.2238507137       10.7175155816        0.0917596412
 H        -9.0215002534        6.2259279878        2.0319441908
 H       -10.6269892568        6.7827558389        1.6481549441
 H       -10.3852461745        6.8557701712        4.5440068911
 H        -9.7709496029        5.2764383175        4.0645495204
 H       -14.9161019774        3.4895514477        3.5960570561
 H       -14.0373996163        2.0372635394        4.5506758750
 H       -14.6763255996        1.0199570154        2.5041159577
 H       -12.8819699873        1.3264114737        2.9391800214
 H        -8.6415390529        2.6306194001        1.5546225593
 H        -9.4526994403        1.0488443279        1.6291868537
 H        -9.6196110290        2.1686969130        2.9514410172
 H       -11.6902495853       -0.0511628487        1.7958326218
 H       -10.8372918520       -0.0723249294        0.3588186835
 H       -12.7037291832       -0.1559657124        0.5501745025
 H       -11.7882322251        3.2353972421       -1.1263201993
 H       -12.7266417195        1.9680924436       -1.2825646654
 H       -10.9992216592        1.6348626320       -1.2042105409
 H       -11.4277713869        5.8021500527        6.4073446884
 H       -10.9925007410        4.1013634138        5.8263243904
 H       -12.4525214850        4.3984081422        6.6773446367
 H       -14.9244949105        5.3817646641        4.2478942217
 H       -14.0829673718        6.7250600235        4.8187417972
 H       -14.4011034747        5.3075920941        5.9342721508
 H        -7.4001526475        7.1131669859        0.4971733131
 H        -6.7787652188        7.1783752449        2.1753390683
 H        -6.2999975284        8.4203475057        0.9103009613
 H        -7.7555497462       10.7005175306        0.8301907176
 H        -7.1479912988       10.1777417303        2.4327586964
 H        -8.6951840224       10.9398771420        2.2651505289
 H        -9.6650077226        8.0846210530       -3.7028033492
 H       -11.0816049893        9.0546115831       -4.2536163707
 H       -10.7484796351        7.4511649163       -4.9396574977
 H       -13.3491413201        7.3083973334       -3.1601496127
 H       -13.0098567014        5.6497033909       -2.6432363955
 H       -12.6087176382        6.2472653770       -4.3886704894
 H        -5.5735546289        3.2579530869       -3.5289877130
 H        -5.0514889143        1.5308140767       -3.2373757922
 H        -6.0129504946        2.4903006380       -1.9873084179
 H        -8.1624165517        1.7244893539       -5.6883672125
 H        -7.0108187993        0.4329761250       -5.2895502516
 H        -6.3313336098        2.0462866978       -5.6437189396
 H        -7.2442658096       -5.8517612871       -0.7164661937
 H        -7.4645542162       -5.0930114033       -2.3173336868
 H        -8.6338434763       -5.0118102643       -0.7428340975
 H        -6.6632779800       -2.3974322158        0.8688617203
 H        -6.0694121053       -4.0509202181        0.9686093035
 H        -7.9073563883       -3.6736823644        0.9544662203
 Na      -12.7339661917        5.2955590305        0.2323878591
