117

 C        -4.6922589424       -5.2498164652       -0.8067896326
 C        -5.4147789130       -4.0444122850       -1.4192021965
 O        -5.0263729362       -3.3134798332       -2.3838564869
 C        -6.9199482167       -3.7793692249       -0.9043249221
 C        -7.8900980151       -2.6876066416       -1.5278362567
 O        -9.0595904077       -2.6301890795       -1.1352604135
 C        -7.2230641399       -1.3308777518       -2.1570903849
 C        -8.3410557968       -0.4483602922       -2.9428633996
 C        -8.1826832460        1.0494529024       -2.7508706848
 O        -8.8271998074        1.7314452817       -1.8966699802
 C        -7.2449446665        2.1055678944       -3.7374721316
 C        -7.9111254370        3.4303780348       -3.8874395586
 O        -8.0719829249        3.8898423324       -5.0013566954
 C        -8.4856669136        4.3371804350       -2.7247427104
 C        -9.2681977016        5.6233363336       -3.2091364574
 C       -10.3677441899        6.0380830861       -2.2624026290
 O       -10.6711787807        5.5416351463       -1.1947861683
 C       -11.3322202113        7.1393567861       -2.8771516148
 C       -11.7132612780        8.1436242360       -1.5816105901
 O       -12.4246409800        7.5976601439       -0.7293525346
 C       -11.2292730778        9.5861933860       -1.4723712397
 C       -10.5028605166        9.6839539139       -0.0716014653
 C        -9.3657846228        8.7057948391        0.1855924208
 O        -9.0680173319        7.8470391413       -0.6553023362
 C        -8.4451653719        8.7555082890        1.3719227556
 C        -9.2324922058        8.1811250101        2.6204703068
 O        -9.5889748864        8.8421480763        3.5606752326
 C        -9.8019248162        6.7600551305        2.3590887631
 C       -10.5239737506        6.1960821827        3.6014199526
 C       -11.9803818531        5.8553955262        3.4638940747
 O       -12.5875589948        5.9227408053        2.3642917699
 C       -12.5421915262        5.0785642085        4.7015629692
 C       -12.6526844101        3.6662295253        4.1240510206
 O       -11.6047237698        3.0816502190        3.9229045877
 C       -13.8911040147        3.0033134156        3.6939224571
 C       -13.8148959061        1.8559165805        2.5609472596
 C       -13.3030595854        2.3895530561        1.2100585143
 O       -13.9925051975        3.1517538749        0.5259521091
 C       -11.9826914874        1.9582075500        0.6248468878
 C       -10.8013905844        2.9798334378        1.3650790812
 O       -10.9079796939        4.1847366415        1.3074021290
 C        -9.5650239689        2.4265034154        1.9867334981
 C       -11.6755930839        0.4585878682        0.8069349325
 C       -11.8953906382        2.3258974232       -0.8872777657
 C       -11.6843112566        4.8235219398        6.0032817133
 C       -13.8222789147        5.8023431897        5.0550322637
 C        -7.2240118946        7.9838818749        1.1329816234
 C        -7.9614900913       10.1538913224        1.7805020407
 C       -10.6795272373        7.7899767533       -4.1266726778
 C       -12.6507049410        6.4956902651       -3.2380401303
 C        -5.7618053578        2.2466959508       -3.2918861075
 C        -7.2034720535        1.4956838388       -5.2262656041
 C        -7.7421511612       -5.0272200373       -1.1151631547
 C        -6.9780896487       -3.4677271290        0.7582818792
 H        -3.5893432923       -5.1021137695       -0.9023158048
 H        -5.0672077789       -6.1496743939       -1.0250277077
 H        -5.0501308066       -5.3868500899        0.1965954861
 H        -6.3426704718       -1.6554358340       -2.8285307659
 H        -6.9744818051       -0.7592049869       -1.3221186695
 H        -9.2702400132       -0.8344520289       -2.6293878042
 H        -8.2089313296       -0.5767706786       -4.0123119717
 H        -7.7487615657        4.7806335442       -2.0551978451
 H        -9.2248352012        3.8096770123       -2.1674438330
 H        -9.6764188774        5.5758051184       -4.2303289644
 H        -8.6152536025        6.5105640342       -3.2629184160
 H       -12.0235311074       10.3800639622       -1.5442025328
 H       -10.3339550791        9.9179010873       -2.1381046505
 H       -11.1616003884        9.6733021856        0.7969242475
 H       -10.0442669052       10.6496617454       -0.0915781432
 H        -9.0317189177        6.0710117105        1.9595601626
 H       -10.4635433148        7.0034359671        1.5671683480
 H       -10.4342281875        6.8168970019        4.5045398420
 H       -10.0327257932        5.2553748533        3.8912580206
 H       -14.6105222164        3.6979884802        3.2548397043
 H       -14.2734664829        2.4425898211        4.5965988376
 H       -14.8580480371        1.6467821972        2.5173144767
 H       -13.1453736938        0.9374376452        2.8845257505
 H        -8.7662205748        3.1277984740        1.9045749070
 H        -9.2014904599        1.5243949199        1.5256791314
 H        -9.7012666330        2.1692158056        2.9942976520
 H       -11.6907073584        0.1571825962        1.7846760780
 H       -10.6467470664        0.1482106095        0.5646027469
 H       -12.3827159418       -0.1742624931        0.4821071495
 H       -11.9239386509        3.4635178180       -1.0950129679
 H       -12.6532906563        2.0358485780       -1.5141897089
 H       -10.9018678902        1.8353531640       -1.2143560489
 H       -11.4280715909        5.6731279232        6.5414362818
 H       -10.8964909089        4.1355189525        5.8726762548
 H       -12.4807914625        4.3376781097        6.6316737842
 H       -14.6079762665        5.5871942174        4.3011031060
 H       -13.7127762718        6.8785573670        4.9166530941
 H       -14.3134199167        5.4834943690        6.0163253001
 H        -7.4519583926        7.1641405429        0.3962973167
 H        -6.9583127197        7.4794518844        2.0344813404
 H        -6.4687254085        8.6399895131        0.7552315759
 H        -7.4444533327       10.5082502071        0.9297782196
 H        -7.3892515907        9.9041707496        2.6524971426
 H        -8.7769281480       10.9727046211        1.9522688520
 H        -9.7516748469        7.2316923784       -4.3989573308
 H       -10.4929798240        8.8348347012       -4.1810690324
 H       -11.3495209444        7.6096813572       -4.9958592944
 H       -13.2957400651        7.2633814423       -3.6326320848
 H       -13.0472644754        6.1415585586       -2.2918634523
 H       -12.4363832433        5.6761804223       -3.8925487927
 H        -5.4766776595        3.2992917470       -3.4677652998
 H        -5.0815591468        1.4224960220       -3.7049335857
 H        -5.7368366033        2.0897084242       -2.2303050841
 H        -8.1391232103        1.9988099176       -5.7204998298
 H        -7.3389222891        0.3925289745       -5.1667650880
 H        -6.2060024672        1.8240980239       -5.6347287336
 H        -7.5110524398       -5.9320833647       -0.6539382550
 H        -7.6198316284       -5.1730241896       -2.1875653921
 H        -8.7404379906       -4.8666559262       -0.6086568439
 H        -6.8412171260       -2.4014172633        0.9948620021
 H        -6.1271625525       -3.9141268225        1.2827159778
 H        -7.9328090824       -3.8599578388        1.0782438105
 Na      -12.8536590416        5.4281187007        0.1594727279
