117

 C        -5.0828258820       -5.5782883100       -0.9526534328
 C        -5.7128523303       -4.2864808418       -1.1309740887
 O        -5.0392341046       -3.3297857280       -1.6458919601
 C        -7.1899829408       -4.0518460143       -0.5970480316
 C        -7.9772497884       -2.8987521771       -1.3132522512
 O        -9.2178648813       -2.8817657542       -1.4133309575
 C        -7.2919751549       -1.4050708715       -1.6508281000
 C        -8.1157325131       -0.5787046392       -2.7400694447
 C        -8.0523052445        0.8563284487       -2.5236056329
 O        -8.3479082506        1.4445552041       -1.5245587998
 C        -7.4991306068        1.7230925522       -3.7625123333
 C        -7.9180827604        3.2755924553       -3.8936815264
 O        -7.5563002662        3.7861826693       -4.9396159909
 C        -8.6653329264        4.1199121872       -2.7179337800
 C        -9.0030003791        5.6878050661       -2.9649885474
 C       -10.3895341359        6.0090696088       -2.4308755287
 O       -10.7983716019        5.2383693746       -1.5774404812
 C       -11.3701394298        7.1561687491       -2.9026487677
 C       -11.6935336401        8.0232448549       -1.6453169663
 O       -12.5087454239        7.7257852279       -0.7504956643
 C       -11.2925501400        9.5070627732       -1.6909195131
 C       -10.5286852755        9.7006971938       -0.3603314426
 C        -9.2677582398        8.6992290205       -0.0478813494
 O        -9.0323279081        7.7812471758       -0.8305221446
 C        -8.4234565103        8.8888613490        1.2284014270
 C        -9.1767363858        8.1758157930        2.3686993292
 O        -9.0387729818        8.5717231700        3.5133430613
 C        -9.8998012663        6.8241599017        2.0515713539
 C       -10.3560005967        6.1922845967        3.3984355940
 C       -11.9187275724        6.0134077155        3.4730586096
 O       -12.6271905624        6.2004398531        2.4419185501
 C       -12.4596318997        5.3128881914        4.7669167166
 C       -12.7162424702        3.7953085435        4.2061477343
 O       -11.8652890817        2.9436080395        4.2120060828
 C       -14.0987904617        3.5125705246        3.3633130164
 C       -13.9123719201        2.2402112237        2.4999657490
 C       -13.2176574633        2.7173792161        1.1017857868
 O       -13.7430708426        3.6136771993        0.5570451880
 C       -11.8121516136        2.2130398155        0.5772193347
 C       -10.8742739598        3.2382175547        1.2446766917
 O       -10.9760032108        4.4337895659        0.9750153155
 C        -9.5906561557        2.8928951406        1.8789632606
 C       -11.4345840385        0.7353875029        1.0015753876
 C       -11.7881395570        2.2198645910       -0.9388975217
 C       -11.4312092415        5.2208224151        5.9403839119
 C       -13.8778523347        5.8211014156        5.1432150812
 C        -7.0191588532        8.1678191206        0.9328987151
 C        -8.0349968793       10.3144614921        1.6064735725
 C       -11.1328566478        8.0836703289       -4.2344862369
 C       -12.6392975119        6.1989766218       -3.2619657268
 C        -6.1116001654        2.0208772532       -3.0756046235
 C        -7.5604190210        1.0285476647       -5.1127806803
 C        -8.1222784650       -5.3435630291       -0.7313147000
 C        -6.9755886828       -3.6695442027        0.9554480150
 H        -3.9089933662       -5.4024040921       -0.8335701377
 H        -5.3869319335       -6.1657549763       -1.7971809949
 H        -5.4223934141       -6.3414713861       -0.3130850498
 H        -6.2633191170       -1.5880075977       -2.0909385539
 H        -7.3278100134       -0.7946288753       -0.7550942204
 H        -9.2404313099       -0.9006415661       -2.7614180525
 H        -7.7443206558       -0.9610601553       -3.6742902303
 H        -7.9991365792        4.0681796546       -1.8728443883
 H        -9.6483251360        3.6779334359       -2.5236716479
 H        -9.0070714223        5.9002912511       -4.0524373956
 H        -8.2625858049        6.3706018107       -2.5696337922
 H       -12.1495801197       10.0659128967       -1.7304016453
 H       -10.5554465209        9.8194343118       -2.3952800823
 H       -11.3308563805        9.6352332815        0.4521510708
 H        -9.9153624233       10.6197546712       -0.1650891178
 H        -9.1105755095        6.2562983601        1.5276868308
 H       -10.7466148749        7.0022102649        1.3850688277
 H       -10.0536365322        6.7784064864        4.2579475087
 H        -9.8832342150        5.1890012883        3.6410214117
 H       -14.2890954362        4.4616239944        2.7415100542
 H       -14.7921325525        3.2490188747        4.2028084363
 H       -14.8876972730        1.7367583842        2.2862389111
 H       -13.2336043635        1.5320495765        3.0882111705
 H        -9.2929402164        3.4055970898        2.8599314812
 H        -8.7399775363        3.0951042085        1.0894335168
 H        -9.4911445009        1.8152011954        2.0690044808
 H       -11.4318906367        0.6600182415        2.1708835289
 H       -10.3058051145        0.4071867730        0.7852222743
 H       -12.1660966778       -0.1183386641        0.7656954252
 H       -12.3014588236        3.0884175363       -1.2992291176
 H       -12.2799758377        1.4331714725       -1.2543571581
 H       -10.7707076156        2.1072790818       -1.3569923147
 H       -10.8614975818        6.1629045938        6.1430427883
 H       -10.7150881700        4.4434228836        5.8003236871
 H       -12.1923077428        5.1389080886        6.8141191996
 H       -14.4361496619        6.2537741019        4.2788289979
 H       -13.7596631178        6.5962384646        5.8923367306
 H       -14.6051096840        5.1133932893        5.4295476526
 H        -7.1918458188        7.0562212939        0.9778641730
 H        -6.2364870327        8.4439105561        1.6815168902
 H        -6.8110736928        8.4752225093       -0.0413692186
 H        -7.4199181555       10.6966112926        0.8505789484
 H        -7.7042687461       10.2307319656        2.5690015304
 H        -8.9248512831       10.9717415827        1.5477891923
 H       -11.5961475602        7.8032834487       -5.1907379242
 H       -10.0694327635        8.0503593929       -4.3193576014
 H       -11.2109177684        9.1569865493       -4.1364798686
 H       -13.0987277176        6.5819216490       -4.1498014240
 H       -13.3314157170        6.3769476410       -2.4388073407
 H       -12.3607051504        5.1131236667       -3.0674197677
 H        -5.3559186898        2.2891901338       -3.7334349434
 H        -5.9200765136        1.1352883895       -2.4787072909
 H        -6.1644705184        2.7874006567       -2.2919282507
 H        -8.3244707762        0.3012468010       -5.1523847775
 H        -6.6525700174        0.5937094400       -5.1402126603
 H        -7.7544212693        1.7631306827       -5.8595430133
 H        -7.9211978595       -6.0637188827        0.0499503529
 H        -8.1173450238       -5.9741059020       -1.7089433482
 H        -9.1788430350       -5.0279157911       -0.4392358892
 H        -6.0718390705       -3.1948201614        1.2164478624
 H        -6.8375436241       -4.6712679940        1.4785986725
 H        -7.9130537638       -3.2827229652        1.3956841187
 Na      -12.5428285151        5.5004068360       -0.0428207357
