117

 C        -5.5018386624       -5.7415954413       -1.2270772760
 C        -5.8798618530       -4.2672038423       -0.9710569480
 O        -5.1573933965       -3.3691091686       -1.2010196034
 C        -7.3386404963       -4.1096129621       -0.3657848004
 C        -8.1142006185       -2.8505544372       -1.2991809626
 O        -9.1617037151       -3.0848937127       -1.7673431857
 C        -7.5268228212       -1.4366806640       -1.1733279158
 C        -8.0705969521       -0.7022049246       -2.3604982445
 C        -7.9056263322        0.8154615411       -2.2471881915
 O        -8.4735059468        1.2928346187       -1.2435843869
 C        -7.3116546399        1.7185165140       -3.5269619707
 C        -7.8829372467        3.2695709206       -3.7136056494
 O        -7.6471557370        3.8480917454       -4.7497914137
 C        -8.8164533935        3.9547311931       -2.7168984911
 C        -9.3382001697        5.3490433349       -3.3016446482
 C       -10.6228547432        5.7257033028       -2.6151566627
 O       -10.8109406009        5.0707404522       -1.5600402438
 C       -11.4967640978        6.8666854405       -3.0807727121
 C       -11.4871803693        7.9841977942       -1.8155487573
 O       -12.2499483998        7.6446883236       -0.9487229033
 C       -11.0291784006        9.4642960357       -1.7476676167
 C       -10.3860456582        9.7431323764       -0.3893541343
 C        -9.2412649379        8.7377255655       -0.1589700294
 O        -9.0443374634        7.8941246723       -0.9919293076
 C        -8.3227725389        8.9380348994        1.1140768166
 C        -8.8790945395        8.1936097360        2.3038434810
 O        -8.6874775699        8.6433916881        3.3977088443
 C       -10.0210305633        7.0686944560        2.0899819160
 C       -10.4488092208        6.2037056507        3.2156211202
 C       -11.9446676173        6.1229858358        3.3112446388
 O       -12.7512762109        6.5874847777        2.5662851466
 C       -12.4698024406        5.3192210342        4.6158100559
 C       -12.6840567296        3.7658841484        4.2268215330
 O       -11.8965704007        2.9048119782        4.5500764708
 C       -14.0158683537        3.4256555839        3.3730055673
 C       -13.8757048822        2.4499105176        2.2120557967
 C       -13.1771580059        2.9719170336        0.9988328823
 O       -13.6007191530        4.0134105659        0.3692849336
 C       -11.7388075204        2.2770409440        0.6900596509
 C       -10.6590421682        3.2276856150        1.2644388527
 O       -10.6498958639        4.4424783619        1.0818253774
 C        -9.3531581931        2.6528140646        1.7420130632
 C       -11.7483657525        0.9024168363        1.3937105868
 C       -11.6850546504        2.0976514370       -0.8771119613
 C       -11.5726263869        5.3787727451        5.9407256128
 C       -13.7697537719        5.9579799025        4.9427207970
 C        -6.8710714434        8.3041970119        0.7748548351
 C        -8.2211506159       10.4644867599        1.3247867158
 C       -10.7521704008        7.4960021198       -4.2917718032
 C       -13.0294197674        6.4239647474       -3.3710961651
 C        -5.8563983220        1.7603097597       -3.3701404881
 C        -7.6734800766        0.9553389522       -4.8728578174
 C        -8.2020462192       -5.2934610537       -0.4928590354
 C        -7.1620996606       -3.5949685787        1.1678929798
 H        -4.4749823283       -5.7768851734       -1.1578905262
 H        -5.9371106227       -6.3425475712       -2.0688900587
 H        -5.7895646223       -6.4394480951       -0.3993632195
 H        -6.4697895610       -1.3865546371       -1.1659806614
 H        -8.0005085873       -1.0822726286       -0.2223832787
 H        -9.0809354615       -0.8904164666       -2.4710536896
 H        -7.6559464731       -1.3172679886       -3.1766830813
 H        -8.4041016264        4.0602253791       -1.7099489312
 H        -9.6788009947        3.3018725335       -2.7017388810
 H        -9.2598111988        5.3374602249       -4.3919666857
 H        -8.5876423275        6.1117285158       -2.9574321344
 H       -11.9683162958       10.2313270108       -1.6795845007
 H       -10.2846582082        9.7641881108       -2.5107255052
 H       -11.1561232605        9.6073695018        0.3425576120
 H        -9.9832065613       10.6920067806       -0.1884435057
 H        -9.8346383572        6.5677905693        1.1654914327
 H       -10.8946895656        7.7026517805        1.9239595157
 H       -10.0449300758        6.5804901351        4.1814486884
 H       -10.1444633316        5.1969052516        3.2754167885
 H       -14.1190432665        4.4014088460        2.9444348836
 H       -14.7132045041        3.0518721877        4.1078718888
 H       -14.9026077581        2.3505064267        1.7350977955
 H       -13.6411249942        1.5564905890        2.5513740248
 H        -9.2243539297        2.9642975903        2.7567462169
 H        -8.6364000359        3.1842841537        1.1874088801
 H        -9.0631046204        1.6170249967        1.7074604130
 H       -11.5382816163        0.7826913494        2.3864221991
 H       -11.1467479133        0.1914684375        0.8098130134
 H       -12.6609934570        0.4390756200        1.1828736877
 H       -11.8441569552        3.1152766499       -1.3404246834
 H       -12.4838712818        1.2615678948       -1.2177994319
 H       -10.7570981910        1.6398269075       -1.2628769450
 H       -11.2698050964        6.3900371394        6.1138491749
 H       -10.6313502243        4.8906354398        5.6539245985
 H       -12.1109015629        5.0459957055        6.7293815159
 H       -14.5330986286        5.8197352145        4.2155576610
 H       -13.6282770337        6.9844461310        5.3276766984
 H       -14.3252241438        5.4056027833        5.7637407568
 H        -7.0676338023        7.3165617178        0.4542508382
 H        -6.3534507516        8.3394533743        1.7374917892
 H        -6.3193396366        8.9076931164       -0.0108679333
 H        -8.1856202255       10.9931445097        0.3079883628
 H        -7.3662028538       10.6907701392        2.0404028868
 H        -9.1204931614       10.7291947273        1.7878826650
 H       -10.5451281533        6.6729559003       -4.9724508928
 H        -9.8276762794        8.1259306097       -4.1696552779
 H       -11.4088042814        8.0264576359       -4.9944124795
 H       -13.4677448192        7.3563731338       -3.6772766294
 H       -13.6220046483        5.8662594630       -2.6818280724
 H       -12.8673100123        5.7641974319       -4.2032131032
 H        -5.4626373892        1.9483025150       -4.4126747644
 H        -5.4175608494        0.8358431545       -2.9137845204
 H        -5.5093737385        2.6682911940       -2.7941893912
 H        -8.7772072827        0.7078088664       -4.9953224774
 H        -6.9483233799        0.0814902095       -4.8830282451
 H        -7.5051283870        1.7909940783       -5.6523325254
 H        -7.7888094824       -6.3288433305       -0.1852334681
 H        -8.4244220400       -5.3784658370       -1.5619379470
 H        -9.1707006347       -5.1578730038       -0.0679165243
 H        -6.4035793146       -2.7635133904        1.1412460827
 H        -6.8398276389       -4.2889542477        1.9018312514
 H        -8.1273406906       -3.2365795914        1.5616660128
 Na      -12.5329858062        5.6914978196       -0.0413685292
