117

 C        -5.6626937986       -5.6830088217       -1.3436940976
 C        -6.0244763119       -4.3043696470       -0.8446868236
 O        -5.2111590278       -3.4024717252       -0.9853083420
 C        -7.5569281855       -4.0526185779       -0.3602945319
 C        -8.2096760335       -2.9713775834       -1.0472739464
 O        -9.0128100809       -3.1858402627       -1.9396396763
 C        -7.6338320309       -1.4784175995       -0.9775844073
 C        -7.9330306279       -0.6575077762       -2.2586250180
 C        -7.9376139204        0.9322074378       -2.1895505803
 O        -8.4418747524        1.5020727936       -1.2828580564
 C        -7.3181780336        1.6910419704       -3.4689424274
 C        -7.8837529250        3.1405537729       -3.6246334354
 O        -7.5951116428        3.7611116807       -4.6664991518
 C        -8.8936301751        3.8075970357       -2.6407699059
 C        -9.5217759859        5.0358651455       -3.3469685352
 C       -10.6972957656        5.5178154972       -2.5328862920
 O       -11.0076462749        4.9709177507       -1.4752318313
 C       -11.4774112406        6.8241001008       -3.1781025039
 C       -11.4599182230        7.9431248138       -2.0005835283
 O       -12.1154024533        7.7394504167       -0.9691449678
 C       -10.9308326070        9.3229989565       -2.1057321965
 C       -10.4900566182        9.7213411248       -0.5672341614
 C        -9.2087660812        8.8232269097       -0.3114911852
 O        -9.0363797869        7.8685194390       -1.0102647069
 C        -8.2996226754        9.0139968451        0.9829399898
 C        -8.9360828020        8.3457820060        2.2321260689
 O        -8.4051793132        8.6121402830        3.3259966936
 C       -10.0794240235        7.2594675508        2.0239937559
 C       -10.3803045259        6.4188715324        3.2328072177
 C       -11.9382097488        6.0686559980        3.3917880911
 O       -12.7089543941        6.5541570472        2.6056838491
 C       -12.5293570404        5.3261015726        4.6189390338
 C       -12.7453906070        3.7938538353        4.1514043744
 O       -12.0187038047        2.8628011640        4.4606551368
 C       -14.0981242490        3.5716426042        3.3675816218
 C       -14.0527283643        2.5272182650        2.2588785512
 C       -13.1561637933        3.0099632479        1.0804073629
 O       -13.5334906711        3.8850670285        0.3076186327
 C       -11.8041967057        2.2930017881        0.7539619408
 C       -10.4689835762        3.1964326788        1.1862696092
 O       -10.5858781155        4.4145924557        1.1251288755
 C        -9.2508557120        2.3495700217        1.6236197207
 C       -11.7064898042        0.9203481768        1.4275331515
 C       -11.6452752063        2.1188412303       -0.7173512318
 C       -11.5204886905        5.5835084946        5.8410989137
 C       -13.8559213410        6.0820392093        4.9087800719
 C        -6.8374134868        8.4084535931        0.7450478155
 C        -8.1225633852       10.4554283645        1.3433159285
 C       -10.7093843354        7.5009151194       -4.3855794757
 C       -12.8883981219        6.5849788417       -3.4460075886
 C        -5.6686139989        1.6370819312       -3.4369930607
 C        -7.7989306754        0.9139257953       -4.6887044223
 C        -8.3362445458       -5.3827369561       -0.3120285829
 C        -7.2475873615       -3.5165498042        1.1460764284
 H        -4.6171901598       -5.7935787795       -1.8749604087
 H        -6.5695708015       -5.8592970753       -1.9922063845
 H        -5.6399673842       -6.5622720067       -0.7608773945
 H        -6.5899824768       -1.4681979067       -0.9020847662
 H        -8.0821052615       -0.9754607027       -0.0638332581
 H        -8.8598375652       -0.9816254897       -2.7673340616
 H        -7.2084179835       -1.1389758325       -2.8744095286
 H        -8.4284857941        4.1077123520       -1.6909798798
 H        -9.7414112818        3.0935691739       -2.4175410063
 H        -9.9178604941        4.6915256575       -4.3158531674
 H        -8.7519417376        5.7796372531       -3.5586149097
 H       -11.6479854500       10.1322802074       -2.3531707994
 H        -9.9982230682        9.4126369494       -2.6188417618
 H       -11.1974815657        9.5984194863        0.2512857733
 H       -10.1252922880       10.7592284645       -0.4360012482
 H        -9.6425382893        6.6743390790        1.1995415495
 H       -11.0337181128        7.7446168264        1.6214724796
 H        -9.9273164542        6.8837469517        4.1031168652
 H        -9.8778293023        5.4534570978        3.2224568614
 H       -14.4793804857        4.5189448046        3.0870881250
 H       -14.5614186019        3.1115505777        4.1342998108
 H       -15.0289686043        2.3769319743        1.8086236311
 H       -13.8195291992        1.5970919197        2.8182965807
 H        -9.2301867967        2.3326019222        2.6764368779
 H        -8.3193582382        2.8199963662        1.2445547227
 H        -9.1412523896        1.3792155082        1.2964181011
 H       -11.4982259388        1.0609092924        2.4811536932
 H       -10.8461805794        0.3075741112        0.9123047768
 H       -12.4780451607        0.2019471577        1.1965189586
 H       -11.4222558115        3.0094047593       -1.3581054025
 H       -12.3625779830        1.4872552366       -1.0742869359
 H       -10.7301826227        1.3598734902       -0.8030595956
 H       -11.6318296954        6.6312897801        6.1070686930
 H       -10.5940278929        5.5402260896        5.4411968403
 H       -11.7225077621        4.9850006219        6.7335832747
 H       -14.6692242112        5.8506907163        4.2049384872
 H       -13.7287754369        7.1468246278        5.1428287254
 H       -14.3532736678        5.7024230901        5.7621338866
 H        -6.9743142134        7.4793284786        0.2165757755
 H        -6.4607509035        8.2884457633        1.8093961077
 H        -6.2025619122        9.0751156353        0.2391411096
 H        -8.0643688080       11.0696913024        0.3712408514
 H        -7.2209019251       10.5483920320        1.9594999327
 H        -9.0144126144       10.7396628000        1.9662041968
 H       -10.3166578738        6.7938485479       -5.0904075297
 H        -9.9429343796        8.3106598741       -4.2396473368
 H       -11.4655838996        7.8556369926       -5.0974352662
 H       -13.4306079577        7.4351254712       -3.1422156317
 H       -13.3278506636        5.6760123444       -3.1287780020
 H       -12.8723199410        6.4630028566       -4.6108841801
 H        -5.3628677018        2.2800532909       -4.2258680063
 H        -5.2283555087        0.6332595135       -3.5262257407
 H        -5.3364296806        2.1903933166       -2.4664099112
 H        -8.8464162467        1.2671330639       -4.9540086229
 H        -7.6749458420       -0.1229036451       -4.5448574223
 H        -7.2029053063        1.4153578075       -5.5379292952
 H        -7.7326769813       -6.1921932906       -0.0217770323
 H        -8.7873536460       -5.6115038953       -1.3038801537
 H        -9.2614353265       -5.2686430210        0.2052099349
 H        -6.8212380348       -2.5496200649        1.1517073705
 H        -6.6467827574       -4.2116528633        1.7899812617
 H        -8.2131014069       -3.4875662458        1.7105162090
 Na      -12.4400385187        5.8345959853        0.1074528849
