117

 C        -6.4036186437       -5.0612101179       -1.6940538515
 C        -6.5019793456       -4.3776381303       -0.3244085349
 O        -5.5800146178       -4.0582992710        0.2958978696
 C        -8.0939901091       -3.9855850664        0.0913557950
 C        -8.5632830975       -3.0735044208       -0.9526796034
 O        -9.0001652870       -3.4557868865       -2.0180589017
 C        -8.3525332383       -1.5729225670       -0.7723480995
 C        -7.6077959365       -0.8687179870       -2.0308156842
 C        -7.5839431520        0.6567497728       -2.0475223835
 O        -7.7343993006        1.4050277337       -1.0915370775
 C        -7.3467928369        1.3508838327       -3.5022182499
 C        -7.8956449693        2.9201445023       -3.3801924256
 O        -7.1377541177        3.8955672936       -3.4821695099
 C        -9.4679713218        3.0507145398       -3.3274458824
 C        -9.7983339526        4.4759234183       -3.9433674396
 C       -10.7434264257        5.3809031208       -3.1151713607
 O       -11.2021150110        4.8092120792       -2.1263434238
 C       -11.2689334061        6.7812835315       -3.6260981110
 C       -10.9039469588        7.7479092609       -2.4873574947
 O       -11.4765224927        7.4663138558       -1.4358471380
 C       -10.2262613384        9.1524042547       -2.7191922943
 C        -9.5653403548        9.6921549838       -1.5076502994
 C        -8.9087365436        8.6320586948       -0.5997365516
 O        -8.9729995724        7.4543657773       -0.9052073623
 C        -8.2906418651        9.2446547948        0.7040566157
 C        -8.7130195738        8.4380063288        1.9604087813
 O        -7.9944102508        8.2469125586        2.9486792398
 C       -10.1895500287        8.0531580756        2.0057132793
 C       -10.6911073493        7.7244850503        3.4088955637
 C       -12.0331074497        6.9510446889        3.3257335313
 O       -12.6156400020        6.7884141365        2.2597347179
 C       -12.5020521748        5.9831174215        4.5937696678
 C       -12.6983033366        4.5543885531        3.8943384204
 O       -11.8236739616        3.7175604751        3.9051992468
 C       -14.1815846350        4.0967962933        3.3993347175
 C       -14.1689959790        2.9651518802        2.4966042377
 C       -13.1237813380        2.9831237608        1.4302564996
 O       -13.2266674406        3.8827234385        0.5601845184
 C       -11.9133841955        1.9783202371        1.3687850515
 C       -10.6202517891        2.7734032631        1.7696907096
 O       -10.5513131801        3.9181386427        1.2804974729
 C        -9.4976277395        2.0399736772        2.4696004284
 C       -12.1680477460        0.6997003495        2.2385406959
 C       -11.7418999137        1.5196599080       -0.1279068107
 C       -11.2624627507        5.8679684216        5.5007984924
 C       -13.7713407748        6.3847393804        5.2352762440
 C        -6.7250061134        8.7258304511        0.4504089141
 C        -8.5649131351       10.7921012259        0.8465758357
 C       -10.4628212904        7.0667284646       -4.9556934668
 C       -12.7587661655        6.7457729028       -3.6554084484
 C        -5.8435207379        1.3580259170       -3.9367499208
 C        -8.2909320503        0.5811883399       -4.5342077397
 C        -8.8121466269       -5.3095395543        0.3829448485
 C        -7.8683945091       -3.2739515918        1.5455475823
 H        -6.0731908892       -4.5378250225       -2.6152545946
 H        -7.4941764357       -5.2230297596       -1.9654575667
 H        -5.8718958054       -5.9879104383       -1.5570094895
 H        -7.8971781159       -1.1089869926        0.1232862129
 H        -9.3831952666       -1.1952866215       -0.6755184363
 H        -8.1546197989       -1.1881523892       -2.9399321889
 H        -6.6542643068       -1.4344615985       -2.1514604904
 H       -10.0889951617        2.8195877882       -2.4217655255
 H        -9.8717729464        2.2742366453       -3.9519683878
 H        -9.9912446541        4.3858232248       -5.0104555378
 H        -8.8113616722        4.9702321661       -3.8727158642
 H       -11.0995825073        9.8547654875       -2.8699192589
 H        -9.5990025567        9.1460670648       -3.5588256071
 H       -10.3142385009       10.1645132195       -0.7732322391
 H        -8.7402782398       10.4193903982       -1.5031078397
 H       -10.4960535025        7.2736425034        1.2478440600
 H       -10.8321679430        8.9298535756        1.7481522672
 H       -10.7221415995        8.6852455593        3.9942673667
 H       -10.0535904626        6.9970480548        3.9038581208
 H       -14.6574749711        5.0197183860        2.9487338020
 H       -14.7348146132        3.8479379836        4.3659079563
 H       -15.1964481329        2.9617761871        1.8843511022
 H       -14.0991317664        2.1254237511        3.0451160624
 H        -9.4495374391        0.9456197917        2.3328895372
 H        -9.4162421340        2.1590874621        3.5861770479
 H        -8.5570460992        2.4333091857        2.0249265199
 H       -12.3290485657        0.8217294442        3.3142028737
 H       -11.1642624983        0.0004733439        2.1401352859
 H       -13.0696367663        0.1975544287        1.8721722927
 H       -11.5984600708        2.4324411504       -0.5687596243
 H       -12.6141857482        0.9658074249       -0.4535396304
 H       -10.7902612954        0.9956189328       -0.2774315582
 H       -11.1058892382        6.8573379823        5.9598104344
 H       -10.4701099348        5.4386114563        4.8421023100
 H       -11.3375908597        5.0666346650        6.1934909309
 H       -14.5427028153        6.4914743083        4.5562812664
 H       -13.8061233029        7.4340513040        5.4696318573
 H       -14.0199046144        5.8876308032        6.1639911601
 H        -6.9190399301        7.8209446152        0.0065311162
 H        -6.0877804861        8.7239659329        1.3210172727
 H        -6.2802820950        9.4107397518       -0.2977187506
 H        -8.3309237284       11.3354289943       -0.0963393969
 H        -7.8911451349       11.2575373561        1.6175097255
 H        -9.5679642599       10.8180829758        1.1540649766
 H       -10.7102477889        6.2265590135       -5.5917546004
 H        -9.3693095877        7.1884601844       -5.0024879022
 H       -10.9741594373        7.9061384727       -5.4383151312
 H       -13.1572675272        5.7907220065       -3.2795565272
 H       -12.9966514270        6.6783117370       -4.7378078092
 H       -13.2734345512        7.5725846584       -3.1185221117
 H        -5.7342755492        1.0314510330       -4.9384215416
 H        -5.3016901440        0.6106252983       -3.4635372895
 H        -5.3657326062        2.3785788438       -3.8852335948
 H        -9.2711202095        0.4256891461       -4.1992543854
 H        -7.9246869764       -0.3217187446       -4.8582296917
 H        -8.1927033197        1.1415428130       -5.4647201134
 H        -8.2297561502       -6.1581606216        0.9025024422
 H        -9.4682109628       -5.8068234854       -0.3435857705
 H        -9.6312155431       -4.9818929643        1.0082934254
 H        -6.8213119761       -2.9696862837        1.8614877870
 H        -8.2748283241       -3.9230719713        2.2851904305
 H        -8.3333660868       -2.2962977626        1.6477297392
 Na      -11.8639552999        5.7910908064        0.0289335087
