117

 C        -6.3921463799       -5.1442444434       -1.5967312112
 C        -6.6236959728       -4.4183023296       -0.2445154603
 O        -5.6910442306       -4.2958965792        0.5223017917
 C        -8.0664746300       -3.9085433822        0.1526247946
 C        -8.6293809319       -2.9583728174       -0.9626020579
 O        -9.2238261465       -3.4309014983       -1.9040060124
 C        -8.4053664917       -1.3767036752       -0.7134734034
 C        -7.6291458547       -0.9000923790       -2.0482220250
 C        -7.6005055388        0.6443230076       -2.0866415417
 O        -7.7493920179        1.2816823451       -1.1104671928
 C        -7.4477130712        1.3752980136       -3.5847375704
 C        -7.9530799820        2.8608097534       -3.5241623860
 O        -7.2037801891        3.7846573460       -3.1943260298
 C        -9.3390585461        3.1722659079       -3.6551906901
 C        -9.6721786290        4.6238404439       -4.0102798949
 C       -10.7078850485        5.2301724499       -3.0306991602
 O       -11.3118665660        4.6980395717       -2.1240537791
 C       -11.2207340285        6.6265464133       -3.7240450197
 C       -10.9045342711        7.6439175079       -2.5698445981
 O       -11.2588133494        7.5229860591       -1.4262428072
 C       -10.1348057139        8.9834821688       -2.8236712776
 C        -9.6555137031        9.6459291545       -1.5718421362
 C        -8.9095541847        8.5719687452       -0.5963935861
 O        -8.7905768732        7.4306206627       -0.8423473672
 C        -8.2392171893        9.1817573034        0.6459011480
 C        -8.7097712426        8.6080365150        1.9856977413
 O        -7.9640062830        8.1687985465        2.8727217487
 C       -10.2408679601        8.2715841098        1.9417184065
 C       -10.8255727230        7.8367205971        3.3309010042
 C       -11.9534530470        6.8305313724        3.1646881686
 O       -12.6251561931        6.7983764825        2.1932683548
 C       -12.4387348113        6.0543281410        4.4661001805
 C       -12.6680405204        4.5826431828        3.9889139357
 O       -11.7140248765        3.8300787834        3.8353563423
 C       -14.0649456793        4.2212196685        3.4685973882
 C       -14.2628470449        2.9931478260        2.6310245852
 C       -13.1725967246        3.0467930789        1.4370822101
 O       -13.1676339795        3.8826861531        0.5247984204
 C       -12.0310203060        2.0556185430        1.4281142838
 C       -10.6329733254        2.8453355456        1.8048880325
 O       -10.3703821065        3.8628769847        1.2647668509
 C        -9.5830212215        2.0847169238        2.6049391823
 C       -12.3821033417        0.8168047965        2.3560936876
 C       -11.7503688825        1.5419297081        0.0452255916
 C       -11.1861398704        5.9100912323        5.5178354766
 C       -13.7914219936        6.5166631128        5.1137692259
 C        -6.6408653958        8.9408178540        0.4403173173
 C        -8.4423084314       10.6542032821        0.8636483172
 C       -10.5512161743        6.9692523582       -5.0913684120
 C       -12.7300556140        6.5132174672       -3.9118397213
 C        -5.9443303881        1.2542635294       -3.9655980668
 C        -8.2453600986        0.5507364688       -4.5648677016
 C        -8.7660338257       -5.2636648243        0.3406926903
 C        -7.9532686854       -3.1845005204        1.5800748631
 H        -5.9989387078       -4.2949673532       -2.3710162217
 H        -7.2847729571       -5.3506018298       -2.1516138002
 H        -5.7044724997       -5.9133563691       -1.4778948798
 H        -7.7830972037       -1.0810811832        0.0402340010
 H        -9.3518488809       -0.8317202022       -0.3664721945
 H        -7.7997852914       -1.4875822325       -2.9590752936
 H        -6.5898005814       -1.2535695851       -1.7333682803
 H        -9.8076158363        2.9963542980       -2.6925136841
 H        -9.9832232719        2.4756429536       -4.1889244426
 H       -10.0256349570        4.6566054001       -5.0469370107
 H        -8.7416893088        5.2277916026       -3.9452476846
 H       -10.6758698927        9.7872418901       -3.4834159755
 H        -9.1427914107        8.6780239585       -3.3082842229
 H       -10.3971894206       10.1197736500       -0.9605699095
 H        -8.8476267415       10.3789341372       -1.6840939624
 H       -10.3029080269        7.4285675075        1.2534169098
 H       -10.8946239403        9.0238569191        1.4939352718
 H       -11.1843963906        8.7388714499        3.9232265341
 H       -10.0441517261        7.3430024035        3.9092267316
 H       -14.3068821668        5.2716074849        2.9776977794
 H       -14.6369028319        4.2018390013        4.4520804877
 H       -15.1702342186        2.9166257870        2.1358583123
 H       -14.1256764863        2.0811134815        3.3500171630
 H        -9.3049963102        1.0409214186        2.3062078527
 H        -9.9639116069        1.9993074306        3.7072298527
 H        -8.6336884533        2.6552361302        2.5943389229
 H       -12.5310775649        1.1529811907        3.3649796394
 H       -11.5922494082        0.1111092314        2.3974948106
 H       -13.3308123303        0.4924720871        2.0880407142
 H       -11.5343570444        2.4502074091       -0.5884193645
 H       -12.5485714069        1.0144704954       -0.2955998572
 H       -10.7549479325        0.9759728711        0.1581753741
 H       -11.1373651572        6.8892426547        6.0913868214
 H       -10.3348630177        5.5333272404        5.0335362615
 H       -11.4104128124        5.0133476754        6.1753196732
 H       -14.6398697415        6.6892723850        4.4995992182
 H       -13.7645265863        7.5624340170        5.3565046129
 H       -13.9534814280        6.0107974303        5.9987878803
 H        -6.5667817147        8.0591541628       -0.1664076694
 H        -6.1187306927        8.8467723977        1.4473612170
 H        -6.2619921299        9.8117884399       -0.0594433993
 H        -7.9210645575       11.3251928556        0.1545149326
 H        -8.1383934330       10.8607240140        1.8359708463
 H        -9.5509061795       10.7330084228        0.8471153572
 H       -11.1773631422        6.5604111365       -5.8502615339
 H        -9.5264961801        6.6488971302       -5.2938636478
 H       -10.5976592528        8.0509887862       -5.1474745630
 H       -13.2755457319        5.7535295070       -3.4015903534
 H       -12.8435061539        6.3267600531       -4.9803106173
 H       -13.1369279111        7.5772359174       -3.6272528098
 H        -5.7771308204        0.8779197328       -4.9136383593
 H        -5.3777802792        0.6188205862       -3.3354508245
 H        -5.5184965045        2.2903223250       -3.9768400706
 H        -9.2136129547        0.2308181830       -4.2984978566
 H        -7.6811024694       -0.2792521837       -4.8265991717
 H        -8.2208622051        0.9868528271       -5.5335247941
 H        -8.2944434144       -6.1225169279        0.8855550728
 H        -9.0551938366       -5.7123373732       -0.7289253467
 H        -9.8483356195       -5.1339378399        0.6872006930
 H        -7.1534760783       -2.4708378053        1.7488052444
 H        -7.9299401959       -3.9157332464        2.4270382665
 H        -8.7975039630       -2.4582052545        1.6609484464
 Na      -11.8839847824        5.6892973946        0.1794191251
