117

 C        -6.2347947673       -4.8031746268       -1.3647468703
 C        -6.7356642686       -4.4791807455        0.0645179620
 O        -6.0165007400       -4.7135604839        1.0013474336
 C        -8.2490842389       -3.9581494912        0.3836387995
 C        -8.8449259968       -3.0112318277       -0.6560252767
 O        -9.6076429890       -3.2177392919       -1.5645238883
 C        -8.2686184059       -1.4711638992       -0.6657482985
 C        -7.5457359135       -1.1603698020       -2.0080275125
 C        -7.7275759787        0.4649858555       -2.2626598619
 O        -7.9866594589        1.1619225470       -1.3560224330
 C        -7.3835626852        1.1084688334       -3.7017892633
 C        -7.8911208352        2.6333713747       -3.5838232442
 O        -7.3087733623        3.3949117997       -2.8047751310
 C        -9.3418931728        3.0812969223       -3.9358116315
 C        -9.4594005175        4.6353019622       -4.0492896233
 C       -10.6993691792        5.1754174991       -3.3117867421
 O       -11.1495887294        4.5095849554       -2.3600393645
 C       -11.3247446412        6.4832099014       -3.8699598817
 C       -11.0717539662        7.4034233580       -2.5920429231
 O       -11.6933930803        7.1715617027       -1.5727610584
 C        -9.8939709945        8.4297884337       -2.7569865753
 C        -9.4480398027        9.4320272406       -1.6069066482
 C        -8.5555358803        8.6552495634       -0.6337845240
 O        -8.0127398866        7.6421379011       -0.8541237104
 C        -7.9102314046        9.4437191173        0.6648242701
 C        -8.7216031673        8.7010054059        1.7343801874
 O        -8.1652559781        7.9864220834        2.5833242607
 C       -10.2669632825        8.5910014188        1.7325177169
 C       -10.7587150330        8.1622751777        3.1221813707
 C       -11.7212059218        6.9973315891        3.0719224510
 O       -12.2058051438        6.6019125414        2.0363319312
 C       -12.2860928874        6.2957657071        4.3798768196
 C       -12.8442533244        4.9070518881        4.0720338258
 O       -11.9716982100        4.0351582941        4.0281632592
 C       -14.2646727026        4.6639357928        3.3816209391
 C       -14.2445453862        3.2956962582        2.7759155680
 C       -13.2359757556        3.1902807198        1.5655317920
 O       -13.3983412962        3.9065645961        0.5913927505
 C       -12.0819559618        2.0198098629        1.6255829274
 C       -10.7377319489        2.9038831223        1.9026715801
 O       -10.4127996992        3.9507320663        1.3918902774
 C        -9.6757894096        2.3886893080        2.8713810050
 C       -12.3062360615        0.8776598667        2.5942293291
 C       -11.9843023170        1.5550382731        0.1078132097
 C       -11.1377034887        6.2122175934        5.4557530954
 C       -13.4602987909        7.2068712460        4.8899440998
 C        -6.4112919238        9.1448230030        0.8735751822
 C        -8.3480951452       10.9281333847        0.6959429913
 C       -10.8981045175        6.9634035175       -5.3985983536
 C       -12.8126470340        6.3246694180       -3.8738635335
 C        -5.7922976841        1.0270377771       -3.9972092494
 C        -8.1238848299        0.2653540726       -4.8037058490
 C        -9.2845009362       -5.0715791061        0.3363968193
 C        -8.2190206519       -3.2692364365        1.7977733481
 H        -5.8497039929       -3.9339904112       -2.0814890003
 H        -7.1240583808       -5.0787555992       -1.9806467284
 H        -5.6216711276       -5.5953630012       -1.1923481900
 H        -7.6964361553       -1.0487525884        0.1053318032
 H        -9.0508697582       -0.6722784908       -0.6376393208
 H        -7.9356921535       -1.8670213461       -2.7450520517
 H        -6.4681203738       -1.3228030959       -2.0745170527
 H       -10.0425055191        2.6762290583       -3.1572188844
 H        -9.8446605804        2.6359970641       -4.7816222252
 H        -9.2598725393        4.9668736682       -5.0611519405
 H        -8.6001814835        4.8490804861       -3.3954441124
 H       -10.0229318424        9.0281766158       -3.6564666499
 H        -9.0400297849        7.8996160272       -2.9717183467
 H       -10.2139341012       10.0661602157       -1.0424379676
 H        -8.5936050403       10.0368954623       -2.0528394677
 H       -10.6935859326        7.8463720290        0.9971588713
 H       -10.6124009705        9.6186637767        1.4594615660
 H       -11.1220399335        8.9786083349        3.7818351996
 H        -9.7894353868        7.7918839445        3.4879002858
 H       -14.3542113716        5.5277387182        2.7004467053
 H       -15.0905675021        4.7773585099        4.0415853658
 H       -15.2955569161        3.1300068912        2.4726193248
 H       -13.9809817802        2.4428101273        3.5186950472
 H        -8.8943730362        2.0270744307        2.2897285832
 H        -9.8921742263        1.6698444908        3.7075306199
 H        -9.2209745729        3.2148594797        3.3559656464
 H       -12.6082013261        1.2874895847        3.6779186011
 H       -11.2740273347        0.4096334736        2.6484799451
 H       -13.2153751555        0.3072334582        2.2994193062
 H       -11.9820172161        2.3852808740       -0.5661780909
 H       -12.8237732886        1.0819676073       -0.0661181369
 H       -11.1026603987        0.8384583320        0.1259915517
 H       -10.4904713536        7.0933113873        5.3327405634
 H       -10.6638958258        5.3021224433        5.1930782925
 H       -11.4774133907        6.1056295977        6.4627603598
 H       -14.2099488505        7.6264480284        4.1933298762
 H       -13.1770052955        8.1927296455        5.3417199753
 H       -14.0562840725        6.6715645185        5.6538811514
 H        -6.4131865737        8.1308254765        1.0814860441
 H        -6.0425921465        9.5877691031        1.8246383680
 H        -5.8848841174        9.4241225860       -0.0394019156
 H        -7.8838681640       11.3922395626       -0.2568757866
 H        -7.9521257730       11.3799172723        1.6373560156
 H        -9.4025968114       11.1712521970        0.5930760920
 H       -10.7056533261        6.1245473560       -6.0283419593
 H        -9.9336076007        7.5479415865       -5.2360496289
 H       -11.6491262697        7.7041920843       -5.7387073578
 H       -13.2129870403        6.9204039886       -3.0920814318
 H       -13.0679774304        5.3358758755       -3.5715008094
 H       -13.3536621616        6.6812473039       -4.8148180028
 H        -5.4172516777        1.6235174566       -4.8205541473
 H        -5.5749498472       -0.0175136854       -4.1816762659
 H        -5.0722386770        1.2618333116       -3.0576725988
 H        -9.2267659371        0.1260091243       -4.6239626097
 H        -7.7266926047       -0.7141442161       -4.9189972159
 H        -8.0723368276        0.7249983568       -5.8821688397
 H        -9.2075166752       -5.7285473099        1.1318163647
 H        -9.1782232691       -5.7008395964       -0.5705577472
 H       -10.2502601763       -4.7819489822        0.5526366658
 H        -8.6481432950       -2.2868361805        1.9607474350
 H        -7.1849573575       -3.0646482835        1.8834541289
 H        -8.5896212803       -3.8096171665        2.6390615107
 Na      -11.4913369279        5.2418093263       -0.1829524916
