117

 C        -6.6225538436       -4.8789689863       -0.9185927813
 C        -7.1264928040       -4.6437479176        0.4475786462
 O        -6.3897049098       -4.9920408960        1.4105800321
 C        -8.5113556359       -3.9721036514        0.6716998667
 C        -8.8068406059       -2.8207155781       -0.4457743982
 O        -9.6499981369       -3.1774824176       -1.1812866761
 C        -7.9104463461       -1.6826695738       -0.6852800304
 C        -7.7541008440       -1.2780844341       -2.1292360504
 C        -7.9631553223        0.2383026866       -2.2141330364
 O        -8.6622724550        0.8638340598       -1.4924642005
 C        -7.4188441058        0.9439354486       -3.6068312384
 C        -7.7418609237        2.5203371735       -3.6836869215
 O        -7.0954719915        3.4130196821       -3.1495808613
 C        -8.9811340202        2.9354909950       -4.4584670156
 C        -9.2201077050        4.4201137831       -4.3494288243
 C       -10.4666095518        4.7470051275       -3.4689281868
 O       -10.9891082940        4.1172652087       -2.5594437163
 C       -11.2238462827        6.0338114525       -3.6697719465
 C       -10.7545700282        7.0170073592       -2.4702416553
 O       -11.4143048217        7.0669576496       -1.4818555409
 C        -9.5306457209        7.8573261999       -2.7654727160
 C        -9.2302407490        9.0598307118       -1.6834934642
 C        -7.8366493024        8.7531288115       -1.0378718999
 O        -7.0665747034        7.9527892931       -1.3681990099
 C        -7.8793136782        9.4745407618        0.3127325769
 C        -8.6876488697        8.7551835820        1.6023570898
 O        -8.1560993201        8.0265840946        2.4051725875
 C       -10.1368370971        9.1648334684        1.7825582049
 C       -10.9082620587        8.6016222053        2.9844258869
 C       -11.4928100509        7.1432214762        2.8391496871
 O       -11.4955470585        6.4805481530        1.8546381879
 C       -12.2511555417        6.6985365928        4.1499055320
 C       -12.8428298068        5.2006738308        4.0877785522
 O       -12.5010813366        4.2385438651        4.8009257887
 C       -14.1883421780        4.9886032077        3.3247139493
 C       -14.3517654640        3.5435819312        2.7953741167
 C       -13.2205274726        3.4388551043        1.6604094225
 O       -13.3667062707        4.1293707171        0.6696101227
 C       -12.0919267402        2.4001836581        1.6327644312
 C       -10.7580688396        3.0597145160        1.8858001670
 O       -10.4385925343        3.9893568204        1.2220970049
 C        -9.9344819463        2.6638495280        3.0754128168
 C       -12.5187022902        1.2671312531        2.7507446821
 C       -11.9060790941        1.6233276517        0.2849287491
 C       -11.1859998410        6.6706867805        5.3573935390
 C       -13.4152328309        7.6510886940        4.3363390266
 C        -6.3717811265        9.4521325955        0.7982754410
 C        -8.2564722251       10.9604993551        0.2702242454
 C       -11.0733038676        6.7289563818       -4.9751914124
 C       -12.9047915353        5.8185260056       -3.4302824787
 C        -6.0027167228        0.5660103473       -3.6115672296
 C        -8.1094231667        0.1852170712       -4.6962747262
 C        -9.5156720541       -5.1057560781        0.4246933525
 C        -8.7880947634       -3.3032004864        2.1043891516
 H        -5.8760893774       -3.9704561003       -1.0278421187
 H        -7.2743691918       -4.7944900293       -1.7488348347
 H        -6.0285950972       -5.8178168334       -0.8491759333
 H        -6.9486325975       -1.8390520687       -0.3041229280
 H        -8.2515034622       -0.7611526190       -0.0814352130
 H        -8.5681591689       -1.7016549072       -2.7079998651
 H        -6.9011798898       -1.7355496211       -2.5945608396
 H        -9.9702623892        2.4856688009       -4.2622430993
 H        -8.8153683700        2.7828503624       -5.5143090797
 H        -9.4067606580        4.8662657826       -5.3208303215
 H        -8.3829279524        4.8907562668       -3.7873366400
 H        -9.5537252327        8.1511935638       -3.7915604611
 H        -8.6988966698        7.2861977237       -2.8238487706
 H       -10.0852973603        9.0113674113       -0.9818540390
 H        -9.2521966650        9.9812568288       -2.2859789105
 H       -10.6340969918        8.8871300090        0.8483823861
 H       -10.2667508914       10.2304649366        1.8491814100
 H       -11.6790309533        9.3834371640        3.2404630085
 H       -10.1862274402        8.5782013192        3.7905984296
 H       -14.3596800719        5.8367162956        2.7377663809
 H       -14.8175829161        5.1736649421        4.0986079733
 H       -15.2412355498        3.2470922746        2.2691132070
 H       -14.2323719739        2.7579332885        3.7251247243
 H        -9.5460478400        1.7106637669        2.9225120299
 H       -10.5378640634        2.6965855798        3.9895233131
 H        -9.1062320230        3.2951344964        3.2373956536
 H       -12.6006862551        1.8748361262        3.7623595725
 H       -11.6959638238        0.5583479215        2.8119132227
 H       -13.4476763141        0.6302454040        2.3545026629
 H       -11.9244250908        2.4144051190       -0.4459006359
 H       -12.8194908356        1.1312001162        0.0949780202
 H       -11.1297050580        0.8723193651        0.4537484566
 H       -11.4647323744        7.5049905694        6.0114157943
 H       -10.2329339661        6.8442020790        5.0550497752
 H       -11.3711247949        5.7549425804        5.9073050339
 H       -14.2161237868        7.6552181363        3.5817946694
 H       -13.1199249552        8.6262781428        4.7717820415
 H       -14.0468265848        7.2601837655        5.1449463794
 H        -5.8737391448        8.4809824101        0.7721153862
 H        -6.4935753029        9.6059124832        1.9167590249
 H        -5.8527449596       10.2320445259        0.2821197736
 H        -7.5507812541       11.5698059520       -0.3972855317
 H        -8.2210099586       11.3650396769        1.2932404395
 H        -9.2835844277       11.1896595709       -0.1208098288
 H       -11.6136416173        6.1692586479       -5.7147343998
 H       -10.0029426103        6.9687249615       -5.2127047692
 H       -11.7616786761        7.5798632710       -4.8345021499
 H       -13.3840860208        5.8716639256       -4.3632196864
 H       -13.3555218479        6.4269547977       -2.7170147083
 H       -13.0601319739        4.7165554466       -3.1382455123
 H        -5.4927672340        0.9326167878       -4.5230442825
 H        -5.7607753890       -0.4997107109       -3.4157950064
 H        -5.4102903616        0.9887872380       -2.7748542613
 H        -9.2087277604        0.0293099737       -4.8079885915
 H        -7.7515835819       -0.8552261689       -4.7861613465
 H        -7.9811453490        0.7797159672       -5.6367015262
 H        -9.4235419123       -5.8880133090        1.0217142467
 H        -9.3592028532       -5.5099441942       -0.5345234062
 H       -10.5179775625       -4.8201653549        0.6760619111
 H        -9.6198229460       -3.8800646568        2.4923772517
 H        -9.3680722739       -2.4070612246        2.1749594083
 H        -8.0216104991       -3.2612375986        2.9042366964
 Na      -11.8807081810        5.1081373503       -0.4456099159
