117

 C        -6.5716137794       -5.1794093306       -0.8408601433
 C        -7.0106793673       -4.6422954169        0.5852423901
 O        -6.5686307701       -4.9181397189        1.6675807353
 C        -8.5403458649       -4.0567086095        0.6353725001
 C        -8.7686813099       -2.9299902461       -0.4887889794
 O        -9.7929716304       -3.0181659230       -1.1577798493
 C        -7.9557464664       -1.6313229298       -0.4508007448
 C        -7.9725278095       -1.2464518831       -2.0357707209
 C        -8.2418911171        0.1855098268       -2.2802134605
 O        -8.8389784372        0.9088881264       -1.4602378609
 C        -7.4070763312        0.8772533429       -3.5915449102
 C        -7.7558211098        2.4302912179       -3.6113588791
 O        -6.9827439680        3.2465941748       -3.1999330582
 C        -8.9983003181        2.8565972568       -4.5083006714
 C        -9.3545668622        4.3752106281       -4.4093661034
 C       -10.5188123394        4.7432157516       -3.4289856374
 O       -10.6482475884        3.9329623121       -2.5034073027
 C       -11.3308024447        6.1152781558       -3.6382678348
 C       -10.7586328092        6.9779310286       -2.4180207420
 O       -11.1074606274        6.9353368036       -1.2507434061
 C        -9.4106315386        7.5285292458       -2.7628449235
 C        -9.1956918163        8.8790326153       -2.0217902477
 C        -8.0128007481        8.7509723806       -0.9854609073
 O        -6.9990111577        8.2283225910       -1.5226138247
 C        -7.8527758317        9.4938132098        0.4626544279
 C        -8.6618917287        8.7847342709        1.5234115016
 O        -8.0884500855        8.0501854087        2.2887168434
 C       -10.2156390423        9.1558538808        1.6808606460
 C       -10.8529855130        8.5952219279        2.9820463036
 C       -11.4190260845        7.2020617718        2.8208845430
 O       -11.4056396434        6.6361223755        1.7276631583
 C       -12.2698626943        6.6892453750        4.1733469228
 C       -12.8842788082        5.3215041911        4.2077942201
 O       -12.3794863029        4.4301483737        4.8335739235
 C       -14.2134411168        5.1521194520        3.3222548121
 C       -14.2643352910        3.7518375359        2.7395803526
 C       -13.2837938876        3.4074913027        1.5579469582
 O       -13.5206824320        4.1116493113        0.5329671185
 C       -12.1758131206        2.4329503496        1.6486481185
 C       -10.7312074793        3.2195893341        1.9209020212
 O       -10.3374715916        4.0175020311        1.0931099471
 C        -9.9586133936        2.8153444835        3.1637149750
 C       -12.5559522558        1.2835784014        2.8153233032
 C       -12.0427510739        1.6240054365        0.2898518011
 C       -11.3121723162        6.8371457856        5.3492113522
 C       -13.4259998219        7.5931635745        4.3266064055
 C        -6.2837186091        9.3572523565        0.8111839792
 C        -8.2252944751       11.0221566259        0.2456110310
 C       -11.0469866048        6.6583132828       -5.0748351374
 C       -12.8497581497        5.7342650006       -3.3742960482
 C        -5.8903310070        0.5530123540       -3.5622396031
 C        -8.0555519881        0.1517576069       -4.7765966731
 C        -9.6654599373       -5.0615674195        0.3979514077
 C        -8.7112919968       -3.3445754214        2.0328269228
 H        -5.7158782153       -4.6412216763       -1.0795947308
 H        -7.3334777398       -4.8782749136       -1.5924004619
 H        -6.3528754925       -6.3527911310       -0.7596603907
 H        -6.9583716531       -1.5835367392        0.0021074168
 H        -8.5695601365       -0.8533132607        0.0370153160
 H        -8.8335249759       -1.7943219345       -2.3824891262
 H        -7.1534444069       -1.6359579309       -2.7047736098
 H        -9.9428294544        2.3714872681       -4.2062314045
 H        -8.8519165674        2.6784157968       -5.6141668413
 H        -9.4603972121        4.8142203707       -5.4057827435
 H        -8.5995933918        4.8740008257       -3.7967571294
 H        -9.2100294118        7.4920897581       -3.7622108109
 H        -8.5947985549        6.8536094569       -2.5180609802
 H       -10.2212814156        9.0898056986       -1.7059883581
 H        -8.9220142425        9.5200440246       -2.9170227643
 H       -10.9070242768        8.8246464218        0.8551668828
 H       -10.4093364100       10.2564661894        1.7319536764
 H       -11.6876612192        9.3567131349        3.0912121799
 H       -10.2295941315        8.6788239525        3.8594724546
 H       -14.2039673597        6.0980378330        2.7676466830
 H       -15.0889508575        5.3568643265        3.9928146079
 H       -15.2048017167        3.4188303845        2.2003935621
 H       -14.1789683196        3.1172129130        3.5389848331
 H        -9.9884780248        1.7440990693        3.3576486551
 H       -10.3405448044        3.3296475840        3.9657625656
 H        -8.8839518503        3.0442206605        3.1394249460
 H       -12.6098612568        1.7974253734        3.6860298020
 H       -11.7146105560        0.5725821712        2.8475554692
 H       -13.4384590261        0.6354730966        2.4832773459
 H       -12.0694093829        2.3917479496       -0.3871533131
 H       -12.9873794437        1.0559929074        0.0858088286
 H       -11.3101891651        0.9857038398        0.3775119996
 H       -11.6562515029        7.5915244125        5.9696055540
 H       -10.3329212194        7.2292650370        5.0856906359
 H       -11.3508731910        5.9325022344        5.9297063998
 H       -13.8944539051        7.9594920438        3.3706750006
 H       -13.0498288348        8.3787477462        4.9620453408
 H       -14.3636541453        7.2811638330        4.8088643007
 H        -5.8120607678        8.3456536748        0.6072604106
 H        -6.1541673710        9.4436296614        1.8675947066
 H        -5.8329799138       10.1087032953        0.2309594029
 H        -7.6910281286       11.6412287290       -0.4910496173
 H        -8.2814651338       11.5994652344        1.1894605203
 H        -9.3449481630       10.9350424998       -0.1046632442
 H       -11.4257223069        5.8057114441       -5.7044071063
 H        -9.9728149363        6.7367231356       -5.0698432224
 H       -11.5991035202        7.5413711019       -5.4480710498
 H       -13.2127712703        5.2642364495       -4.2934298411
 H       -13.5419527516        6.5532089930       -3.1008071786
 H       -12.9669945628        4.9930448711       -2.6555572720
 H        -5.4407942445        0.5980218814       -4.6034848213
 H        -5.5545412369       -0.3883713224       -3.0193218392
 H        -5.3129227463        1.2189867065       -3.0257690668
 H        -9.1315324008        0.0818117704       -4.9620416229
 H        -7.7697113007       -0.9735099748       -4.8254202237
 H        -7.7994789891        0.6515820382       -5.6712345596
 H        -9.9339123949       -5.9298556535        1.0295110889
 H        -9.4561082789       -5.4884920452       -0.5096606981
 H       -10.6141302031       -4.5017376279        0.3467639596
 H        -9.3207134069       -3.9438591690        2.6101140665
 H        -9.3123354892       -2.4824131116        2.1482064094
 H        -7.7725610547       -3.1864928317        2.5313420989
 Na      -11.8338971929        5.1043025339       -0.3686477384
