117

 C        -6.9670195812       -5.7888845651       -0.2935172547
 C        -7.3524271759       -4.7951898101        0.8086656143
 O        -6.5907321968       -4.7123735269        1.8006355271
 C        -8.6788873345       -4.0362457936        0.8102406807
 C        -9.0192065482       -3.0985858934       -0.3438114916
 O        -9.9666255889       -3.1968697113       -1.0205918808
 C        -8.2650549353       -1.7938138887       -0.5256167648
 C        -8.2219693475       -1.2249813480       -1.9581057666
 C        -8.1634843238        0.3085500933       -2.2861008813
 O        -9.0178265765        1.0819266052       -1.8357299999
 C        -7.3637685487        0.7246610896       -3.5150562817
 C        -7.7861448901        2.2646370193       -3.7748529869
 O        -7.2192764613        3.2690127018       -3.4575863616
 C        -9.1509261448        2.4457196111       -4.4502113817
 C        -9.5278045983        4.0026330775       -4.4693586259
 C       -10.3752602394        4.4842001448       -3.2994443087
 O       -10.4041618715        3.8718937017       -2.2335598555
 C       -11.2083269925        5.9147025600       -3.4759342844
 C       -10.4690252968        6.8551920086       -2.4492051657
 O       -10.7760665893        6.9371766393       -1.2791661424
 C        -9.1858309859        7.4681425185       -2.8849932450
 C        -8.9513128341        8.7423621641       -1.8730016182
 C        -7.5836635989        8.8936912698       -1.2096610261
 O        -6.5480453066        8.5684992587       -1.7747870476
 C        -7.5988499464        9.5787819010        0.1722576772
 C        -8.6978438436        8.8389037827        1.1429526570
 O        -8.1836023031        8.0264873236        1.8577646510
 C       -10.3125710258        9.0264419039        1.3164282603
 C       -10.7362757858        8.6370097466        2.7278067231
 C       -11.5330927372        7.3735604513        2.7870424024
 O       -11.6629460550        6.6053008037        1.8361807159
 C       -12.3149279914        7.1645484272        4.2442155630
 C       -12.8518170147        5.7297954599        3.9691579096
 O       -12.2476715437        4.7501293067        4.3739817054
 C       -14.0596558828        5.4940416222        3.0614619747
 C       -14.3337189479        3.8939078347        2.8594807402
 C       -13.3576284063        3.4827434189        1.5766413791
 O       -13.5904244909        4.0160897831        0.4655546949
 C       -12.2174744884        2.4424010103        1.7173332378
 C       -10.8584449015        3.2383871096        1.9492691493
 O       -10.2976530457        3.8111420969        1.0123250039
 C       -10.1821312488        3.2470068634        3.2475628977
 C       -12.6552038754        1.4351628022        2.8509950988
 C       -12.0651122576        1.7291567815        0.3177155102
 C       -11.2959821880        7.1951477167        5.5903200415
 C       -13.4882948308        8.2259051970        4.3148911971
 C        -6.2599773987        9.5832267515        0.8788325874
 C        -8.1632988671       11.0393605486        0.1153325690
 C       -10.9997552025        6.3909377258       -5.0440306771
 C       -12.5989613558        5.5072943431       -2.8791337937
 C        -5.8092072737        0.4826797452       -3.2505198254
 C        -7.8293190113       -0.1562318290       -4.6838183125
 C        -9.7074837412       -5.2201770341        0.7510019427
 C        -9.0497876566       -3.4226477719        2.0447881654
 H        -5.9769755981       -6.1216645496       -0.0663973271
 H        -7.1409028436       -5.2989246508       -1.2167301621
 H        -7.8472829174       -6.5897687594       -0.3004617897
 H        -7.2852215825       -1.9385783357       -0.1947298561
 H        -8.8262098619       -0.9882456994        0.0725663293
 H        -9.1264794982       -1.6394826381       -2.4648013232
 H        -7.3859352516       -1.7394703807       -2.4515519906
 H        -9.8180558531        1.8498849168       -3.8428383753
 H        -9.1180617308        2.2491977126       -5.4864226121
 H       -10.0653720598        4.2715418249       -5.3862453738
 H        -8.5142478554        4.4723284028       -4.3766739821
 H        -9.1993379382        7.6909368293       -3.9466958165
 H        -8.3414937608        6.8590105661       -2.9666958976
 H        -9.8521962165        8.7169677964       -1.3291048994
 H        -9.0155326809        9.4678268545       -2.6679100922
 H       -10.8139438813        8.3332191479        0.6754070374
 H       -10.6544143540        9.9957952083        1.0548677503
 H       -11.4165585436        9.4581075124        3.0582918862
 H        -9.9191626832        8.6786882407        3.4380711354
 H       -13.9956780341        6.0348460805        2.1293381589
 H       -14.8085607469        5.9952500091        3.5407217987
 H       -15.4337059874        3.7417794348        2.5742551395
 H       -14.1774847593        3.2141339288        3.6897279890
 H       -10.5926641534        2.5128553436        3.9569763057
 H       -10.2724243961        4.2319795609        3.6871480509
 H        -9.1002597804        2.9856584901        3.1541061972
 H       -12.7620748055        2.0612915882        3.6899795660
 H       -11.7152458620        0.8143174140        3.0089829406
 H       -13.4349807549        0.7081672527        2.3318096362
 H       -11.9567737146        2.4626554262       -0.5237229468
 H       -13.0637106659        1.1329676743        0.3362420799
 H       -11.3622037393        0.9969503253        0.4630873948
 H       -11.2169516066        8.1357162822        6.1153591473
 H       -10.3015459649        7.1025520539        5.1794022154
 H       -11.5323500622        6.3502235119        6.3161382279
 H       -14.3069254741        8.0255347948        3.5700554090
 H       -13.1546534071        9.2580111658        4.1684458135
 H       -13.9496800205        8.1723947912        5.2920419143
 H        -5.9899644784        8.5452134978        1.3069480626
 H        -6.2758780648       10.3819512730        1.6709463733
 H        -5.4901180242        9.8157031574        0.1796350820
 H        -7.4757130969       11.6972919784       -0.3828292008
 H        -8.3280816887       11.5492058508        0.9970690294
 H        -9.0977276747       11.0663912420       -0.4743752084
 H       -11.7231225800        5.9102827409       -5.6694694591
 H        -9.9749083270        6.4198495386       -5.2892970653
 H       -11.2759270889        7.4446360010       -4.9832466877
 H       -12.6299851906        4.4376507702       -2.5857650933
 H       -13.5619658262        5.6717407569       -3.3643226345
 H       -12.6362471413        6.1042429323       -1.9505879549
 H        -5.0885113176        0.5999450611       -4.0723994184
 H        -5.6328944456       -0.6073249514       -2.9864787938
 H        -5.4339570156        0.9925896631       -2.4379561317
 H        -8.9278938126       -0.1800095836       -4.7390211480
 H        -7.4349700544       -1.2385797143       -4.5976989877
 H        -7.4846238923        0.0594626412       -5.6771159025
 H        -9.6538136292       -5.9258703435        1.5466745780
 H        -9.6591432239       -5.7779154463       -0.0983766562
 H       -10.7626326409       -4.8401570113        0.7266114854
 H        -8.3984007123       -3.6330850575        2.8990100792
 H       -10.0586544912       -3.5868596608        2.5124212456
 H        -9.0117185173       -2.2567647195        1.9447559746
 Na      -11.5690951696        4.9195903514       -0.3432326166
