117

 C        -7.1903568840       -5.8334600821       -0.1883582837
 C        -7.3159478621       -4.8286254106        0.9984548129
 O        -6.4831406937       -4.5782623880        1.7873205376
 C        -8.8966873160       -4.1215679193        0.9496419679
 C        -9.1025618382       -3.1029067781       -0.3737188838
 O       -10.0386780424       -3.4003978209       -1.1230990219
 C        -8.3113849903       -1.6685865584       -0.4335950314
 C        -8.4038347896       -1.3627566949       -2.0204750447
 C        -8.1975121721        0.1312165742       -2.2940536859
 O        -8.9926455306        0.8665302566       -1.6771481500
 C        -7.3465148232        0.6770499286       -3.4535001927
 C        -7.7982801148        2.1371121435       -3.7595042263
 O        -7.1212236995        3.1134841350       -3.5594438442
 C        -9.2686715629        2.3525874550       -4.4574558526
 C        -9.6209130273        3.8238599276       -4.6257492397
 C       -10.2631191930        4.4421641056       -3.3236951292
 O       -10.3803734976        3.8271873118       -2.2813387690
 C       -11.1200020923        5.7895442721       -3.2673928132
 C       -10.3192984897        6.8372109938       -2.3986061123
 O       -10.7699342858        6.9073761974       -1.2636303629
 C        -9.2332337949        7.7340046619       -2.9471949119
 C        -8.8370369940        8.8916167646       -1.9416879117
 C        -7.5331180615        8.8996957182       -1.2772241505
 O        -6.3944401543        8.6310026968       -1.7846413145
 C        -7.5923738807        9.6607191580        0.2300637915
 C        -8.5539659330        8.7751811696        1.1247466995
 O        -8.1732781368        7.8181148237        1.7640671272
 C       -10.0886346951        8.9991605840        1.1184244883
 C       -10.6900328441        8.7139055392        2.5009610554
 C       -11.5998136715        7.5331410278        2.6968455564
 O       -11.6936252849        6.6355089905        1.8643545793
 C       -12.3936212022        7.1981538150        4.0996940573
 C       -12.9307808765        5.7744749264        3.9771863360
 O       -12.2181141720        4.8518257960        4.2985268670
 C       -14.1636247300        5.6347120211        3.0770807783
 C       -14.1446729860        4.1604838413        2.7763653550
 C       -13.2462807584        3.6255620361        1.6252689563
 O       -13.4842444867        4.1505521172        0.5194406539
 C       -12.2808196556        2.4238119566        1.7746739244
 C       -10.8234096188        3.1661867520        2.0252446424
 O       -10.2963930123        3.7040905110        1.0750360910
 C       -10.2006198185        3.2080705366        3.4309989082
 C       -12.6202884602        1.3962279453        2.8280662899
 C       -12.0458648488        1.6337098605        0.4628169852
 C       -11.4782119316        7.2560428171        5.3488439898
 C       -13.4641266533        8.2629104035        4.4202619444
 C        -6.2792525264        9.7074458213        0.9189085423
 C        -8.1595076855       11.1033560929       -0.0904073859
 C       -11.1134320270        6.2950150795       -4.7435011357
 C       -12.5766235743        5.5516968539       -2.9313435671
 C        -5.7815850890        0.6032772210       -3.1971264029
 C        -7.6221110624       -0.1799844768       -4.7071320077
 C        -9.8811679085       -5.3210864655        0.7727592718
 C        -9.1787030675       -3.2567017891        2.2808238223
 H        -6.2436627441       -6.3103316085       -0.0810876469
 H        -7.3994510057       -5.1560438750       -1.0983584062
 H        -8.0562869613       -6.4691519153       -0.2617002961
 H        -7.2773654400       -1.8832723522       -0.0251017035
 H        -8.9046453901       -0.9494713569        0.0946932456
 H        -9.3574287461       -1.7067901910       -2.3000416608
 H        -7.6227457292       -2.0490472301       -2.5008230887
 H        -9.8598763491        1.9943740911       -3.6624746037
 H        -9.4168591721        1.9407462774       -5.4710574167
 H       -10.4542908957        4.0000152894       -5.3309344168
 H        -8.6681701569        4.2957763558       -4.9246419102
 H        -9.2973984048        7.9114813548       -3.9351954907
 H        -8.3994423624        7.1092177839       -2.9852250719
 H        -9.6134387256        8.6494646863       -1.2566827001
 H        -9.0466930936        9.8025140200       -2.5294277198
 H       -10.4848400184        8.2329224538        0.4664311015
 H       -10.3144752162        9.9593649259        0.6729065333
 H       -11.1382460011        9.6193084114        2.9655858611
 H        -9.7902815659        8.5693620838        3.1020255025
 H       -14.0943817943        6.2910881968        2.2567127491
 H       -15.1019319146        5.9094405531        3.5997635516
 H       -15.2472092587        3.9077760124        2.5069555480
 H       -13.9364665230        3.5071132420        3.5206601061
 H       -10.6969008354        2.6221299451        4.2030176455
 H       -10.2475221443        4.1917304214        3.7503844561
 H        -9.1670554486        2.8734699834        3.4412585166
 H       -12.8351780258        1.8633811249        3.7906330667
 H       -11.5899348518        0.8339641661        2.8090887781
 H       -13.2598872127        0.7551136771        2.3256761908
 H       -11.7692062886        2.3006284403       -0.2709702076
 H       -13.0068713181        1.1770301898        0.3633730962
 H       -11.3501749831        0.8112738520        0.6480845648
 H       -11.2934690011        8.2419786502        5.6011616391
 H       -10.4610468881        6.7753888822        5.2537162731
 H       -12.0180599263        6.8120492674        6.1505840613
 H       -14.4113507607        8.0552640841        3.8233414514
 H       -13.1826839220        9.2821886300        4.1054509396
 H       -13.7533100956        8.2588320258        5.5154082514
 H        -5.9090326396        8.7026534143        1.2563266225
 H        -6.2449562327       10.4868927808        1.6505171336
 H        -5.5546764240       10.0350849172        0.1137761657
 H        -7.3992490155       11.7016896168       -0.5569799716
 H        -8.4394922803       11.8174016455        0.7257139745
 H        -9.0382634638       11.1560483476       -0.7870402083
 H       -11.7926584774        5.6628583159       -5.3981549569
 H       -10.0778481374        6.3378780907       -5.0231923587
 H       -11.4795790510        7.3148642130       -4.7035016856
 H       -12.8855860842        4.6103972575       -2.4828898654
 H       -13.1937859745        5.6049516401       -3.8635128023
 H       -12.9194047936        6.3358229839       -2.3996443769
 H        -5.0679100376        1.0068403718       -3.9665554639
 H        -5.4740996946       -0.4782201732       -3.2540883257
 H        -5.4523759153        0.9521357213       -2.2114454124
 H        -8.7381175139       -0.4484012939       -4.7568337502
 H        -6.9799009432       -1.1255410702       -4.8158193494
 H        -7.3614556711        0.2285616236       -5.6990061268
 H        -9.7607757817       -6.2058558771        1.3850121603
 H        -9.8432775781       -5.6267384151       -0.2462238455
 H       -10.8399149485       -5.0642712711        0.7657647328
 H        -8.1877946871       -3.3468485377        2.8059560786
 H        -9.8775576076       -3.4759965950        3.0960869516
 H        -9.2891486120       -2.1679348306        2.2048502875
 Na      -11.6199302935        4.9737505007       -0.4487061937
