117

 C        -7.3301013663       -5.8292426402       -0.0282780904
 C        -7.7277033734       -4.6925497014        0.9525797682
 O        -6.8449386605       -4.0576635498        1.6271612000
 C        -9.1792144372       -4.0854420824        1.0568337950
 C        -9.2823111194       -3.3889371459       -0.3384930020
 O        -9.9299631351       -3.8850937563       -1.1877175454
 C        -8.4912119941       -1.9526973777       -0.5054601519
 C        -8.2786530707       -1.5776976025       -1.9397165105
 C        -8.2464743292       -0.1459057363       -2.2638325351
 O        -8.7598003644        0.5799878843       -1.4400077980
 C        -7.4325353774        0.5326764026       -3.4275380525
 C        -7.9133167002        1.9696617104       -3.8357366049
 O        -7.1484785983        2.8950243524       -3.8298015242
 C        -9.3672519350        1.9828611095       -4.2631383513
 C        -9.8565328286        3.4817140453       -4.5482464748
 C       -10.3307175123        4.3469082477       -3.2182312780
 O       -10.3805535850        3.8137545537       -2.1346711474
 C       -10.9935381248        5.8052615603       -3.4786978891
 C       -10.3317873859        6.8488352531       -2.4612666359
 O       -10.5241095122        6.8154666212       -1.2487307196
 C        -9.1278463363        7.8106534394       -3.0335796496
 C        -8.7683406336        9.1047641906       -2.2493639062
 C        -7.4660676854        8.9954846994       -1.2605095663
 O        -6.4423062668        8.5988061788       -1.7720878085
 C        -7.6007207864        9.7315940759        0.1726920513
 C        -8.4326513399        8.7638742980        1.0533293385
 O        -7.8829824677        7.7346679522        1.4026948327
 C        -9.9870596435        8.9120217842        1.0494017397
 C       -10.6343572598        8.8500860800        2.4517565688
 C       -11.6435830479        7.6854690204        2.5572538129
 O       -11.7322145885        6.9219084072        1.6131211461
 C       -12.4078197038        7.4917366008        3.9159939007
 C       -12.9964444894        5.9636118141        3.8514185345
 O       -12.3566669305        5.1228870200        4.4381399413
 C       -14.3051493894        5.5058473681        3.0492776643
 C       -14.4193765727        3.9371478670        2.6443075182
 C       -13.2213816568        3.5930091890        1.6614329496
 O       -13.1527045139        4.3403071158        0.7417241534
 C       -12.3017795370        2.4668446392        1.8238129502
 C       -10.7900078661        3.1282351283        2.1969419341
 O       -10.2909564056        3.8185888004        1.3238985830
 C       -10.1284370893        2.9411146954        3.4907513763
 C       -12.7012113620        1.5616721565        3.0752887342
 C       -12.1459024241        1.7403490810        0.5443999069
 C       -11.1676750045        7.5518262525        4.9882389417
 C       -13.5341640516        8.5022286607        4.0784236633
 C        -6.2167214616        9.8295632831        0.7623843372
 C        -8.1803984960       11.1157744513        0.0036012762
 C       -10.9645294717        6.3968129493       -4.8991947751
 C       -12.4505072242        5.6575956827       -2.9948704553
 C        -6.0221041606        0.6479478773       -2.7227918741
 C        -7.3714616854       -0.2974004702       -4.7261329329
 C       -10.2521522843       -5.1025283775        1.2929282615
 C        -9.1154791061       -3.2606006265        2.3662357866
 H        -6.2649778445       -5.8399092931        0.1478844619
 H        -7.8051812328       -5.7260098756       -0.9280357124
 H        -7.8124230984       -6.7816012481        0.4664075625
 H        -7.5777025867       -2.0369455684       -0.0031400629
 H        -9.2499530320       -1.2705779247       -0.0551625800
 H        -9.2582614733       -1.8799679173       -2.4849985916
 H        -7.4878509907       -2.2279095808       -2.1690274032
 H       -10.0143375545        1.6531492699       -3.3905195585
 H        -9.3457827726        1.3615574415       -5.1656273442
 H       -10.7901064675        3.5140670953       -5.1199435481
 H        -9.1127660192        4.1277781258       -5.0509351163
 H        -9.3843583473        8.1098166890       -4.1589228943
 H        -8.1629514069        7.1856163221       -3.2985966515
 H        -9.7847575575        9.3892466544       -1.9795894173
 H        -8.4262105328        9.7363312705       -3.0730742392
 H       -10.2865559172        8.0239820862        0.4181510094
 H       -10.2584379232        9.8157101378        0.4576126292
 H       -11.1119970910        9.7867627185        2.7235069326
 H        -9.7202674541        8.9213460402        3.0586498830
 H       -14.2866190472        6.1728124651        2.0680503556
 H       -15.2477859729        5.7685510963        3.5957136958
 H       -15.3418729887        3.8092720773        2.1307436761
 H       -14.5189204978        3.2279256414        3.5345009348
 H       -10.8361176038        2.7923794023        4.3066923676
 H        -9.5883039010        3.8684673980        3.8418428971
 H        -9.4684164365        2.0677722307        3.4546500783
 H       -12.6779392272        2.1553812243        3.9124820408
 H       -11.9530861365        0.8031072534        3.1040100886
 H       -13.8075123037        1.3943612050        2.8187522884
 H       -11.4191407637        2.3171137703       -0.0974610488
 H       -13.2343021093        1.4539113405        0.2197242056
 H       -11.6204857505        0.8981295977        0.8652247606
 H       -10.4390131401        8.3958560475        4.8616257229
 H       -10.7230613082        6.5998318774        5.0597187759
 H       -11.5593200376        7.6604798700        6.0596981906
 H       -14.1779568327        8.7503454112        3.2115214398
 H       -13.1562640790        9.4864566553        4.4038497724
 H       -14.1145790053        8.1274300261        4.9244041587
 H        -5.7163446520        8.8819182851        0.9300513572
 H        -6.3535411638       10.4717204908        1.6450706121
 H        -5.5819587382       10.4053987687        0.2035967748
 H        -7.5453519694       11.7648566145       -0.6738648719
 H        -8.0168444395       11.6209066228        0.9513928247
 H        -9.2027071440       11.3755816425       -0.2800086190
 H       -11.2089372395        5.5425439543       -5.5117342804
 H        -9.9424567176        6.6807262953       -5.2718709240
 H       -11.6929471942        7.2525147468       -4.9186775197
 H       -12.3676510960        5.1952959351       -1.9419562280
 H       -13.0887200420        4.9202953413       -3.4181721667
 H       -13.0866027726        6.6163079918       -2.9790550811
 H        -5.3287659107        1.1220260214       -3.3983590277
 H        -5.4536762187       -0.2765647410       -2.5819032647
 H        -6.0750265220        1.2324442368       -1.8566452055
 H        -8.2724329488       -0.5679989262       -5.1643514425
 H        -6.7483819799       -1.1472477507       -4.6390959346
 H        -6.7872960338        0.1700647921       -5.4819334165
 H        -9.7144111041       -5.8835024020        1.8657500478
 H       -10.5926321268       -5.5702420367        0.3470826581
 H       -11.3590920917       -4.8712009723        1.6505536869
 H        -8.2797579056       -2.7618281985        2.7409885013
 H        -9.3253876619       -4.0044299281        3.0834931786
 H        -9.9450241424       -2.6042745360        2.5597005251
 Na      -11.2324801058        4.9108451744       -0.4076678489
