117

 C       -12.7822356671        2.9458060631      -11.0905116438
 C       -12.6413170705        2.4514816035       -9.7172841521
 O       -13.0759753822        3.1090317727       -8.8137975109
 C       -11.9799960752        1.0870106856       -9.4947321527
 C       -11.4433452205        0.8696918534       -8.0713200462
 O       -11.4814873756       -0.1961245852       -7.5383387870
 C       -11.0206391430        2.1469860803       -7.2687129537
 C        -9.9053782107        1.8082347554       -6.3180366540
 C       -10.1152173722        2.3180407723       -4.8451317479
 O       -11.1704096147        2.8360272048       -4.6263022192
 C        -9.0537024191        2.1066804895       -3.6652243557
 C        -8.5024987001        3.5796516749       -3.3535670856
 O        -7.3470020607        3.8033287305       -3.7081598784
 C        -9.3807444642        4.5416458391       -2.5274028078
 C        -8.7125811792        5.8453314921       -2.2858381533
 C        -8.1939542012        5.9973192903       -0.8715605936
 O        -8.1755338079        5.0395508624       -0.0683407652
 C        -7.9598769864        7.4650487335       -0.3455128407
 C        -9.1884605232        7.7488752843        0.6637249855
 O       -10.1811944478        7.0699521724        0.7621968939
 C        -8.9840222538        8.9369378462        1.6936900897
 C        -9.9792996983        8.8424459309        2.8690189442
 C        -9.5847032049        7.5769929851        3.5898887100
 O        -8.5844928145        7.0026306845        3.2461126997
 C       -10.6282223486        7.0180846652        4.7236131618
 C       -10.2400252061        5.5972514021        5.2678901011
 O        -9.5755567154        4.8798993187        4.5527450910
 C       -10.9284561603        5.0490995381        6.5451643539
 C       -10.8478811102        3.4857591122        6.5521086471
 C       -11.8990882931        2.8464410415        5.5537174493
 O       -12.4685532175        3.4421035776        4.6932869375
 C       -12.1041116488        1.1766502145        5.6640934552
 C       -10.8266986997        0.7154927629        4.9408195799
 O        -9.7149534677        0.7094842084        5.5227475735
 C       -10.8286881735        0.6225250156        3.4810916056
 C        -9.4037830731        0.3899689251        2.9358968291
 C        -8.4995837927        1.5950603205        2.3697648681
 O        -9.1518340011        2.6174718188        2.0418170658
 C        -6.9069554872        1.6488811554        2.4447474912
 C        -6.4160718348        2.6084932232        3.5950563938
 O        -6.6676199275        3.8094125104        3.5580218368
 C        -5.6334401831        1.9638019637        4.7894699150
 C        -6.2366196927        0.2123675479        2.5620233853
 C        -6.3707822480        2.2958685571        1.0820309500
 C       -12.1069470032        0.6659179451        7.1128153060
 C       -13.4810668117        0.8812459301        4.9609628219
 C       -10.7244172700        8.1444731362        5.8683674717
 C       -12.0335974208        6.9353142369        4.1411918013
 C        -6.5282340627        7.4864312473        0.3104489044
 C        -8.0456015102        8.5455341481       -1.4629689641
 C        -9.8573376080        1.6142099567       -2.4454206186
 C        -7.9095334974        1.1341504693       -3.9848262781
 C       -13.1325785163        0.0679750082       -9.8432843932
 C       -10.7982951867        0.8911362646      -10.4309610911
 H       -13.5813352703        3.6482645991      -11.3442609539
 H       -12.9931721261        2.1179222645      -11.6936385862
 H       -11.8294585177        3.2871513543      -11.5363891286
 H       -11.8957977144        2.3335509496       -6.6822997964
 H       -10.7662907463        3.0542659641       -7.7530482267
 H        -8.9513441046        2.1620712521       -6.6579786618
 H        -9.6619248411        0.7413461466       -6.2440931356
 H        -9.5699697398        4.0561241120       -1.6246380330
 H       -10.2954459261        4.7873246697       -3.0992171110
 H        -9.2632447381        6.6225986890       -2.7707565067
 H        -7.7378495591        5.8680202917       -2.8809324334
 H        -8.8239632622        9.9549078826        1.3038757069
 H        -8.0402401452        8.7214757829        2.0821560041
 H       -11.0225470501        9.0172750477        2.5720951853
 H        -9.7432442289        9.7084832009        3.5502293223
 H       -11.9510105193        5.4058460178        6.5240417978
 H       -10.4737018129        5.4284131204        7.4373478680
 H       -10.8742322754        3.0683643417        7.5478360062
 H        -9.9023674246        3.0875740062        6.2631696943
 H       -11.2490921183        1.5110258314        3.0303848305
 H       -11.4754577007       -0.1672158686        3.1660193153
 H        -9.4198412241       -0.3745236966        2.1307625558
 H        -8.7783475427        0.0259118407        3.8588948608
 H        -5.2735256344        2.7518970173        5.3713530753
 H        -4.8922900177        1.2168459410        4.5017754685
 H        -6.3285167329        1.3024727601        5.2886340130
 H        -6.3966490644       -0.3763525214        1.7194834908
 H        -6.4412112752       -0.4849262092        3.3296078845
 H        -5.1369631129        0.4282958208        2.6327411379
 H        -6.5973730616        3.3720112930        1.1246877731
 H        -7.0569687926        1.9969598997        0.3013452109
 H        -5.3770451633        1.9818939719        0.8223508315
 H       -11.3509132233        1.1238705042        7.7245817643
 H       -11.8915464947       -0.3664914122        7.1036599922
 H       -13.1242389756        0.6947325751        7.4982296901
 H       -14.0736643359        1.7926904487        4.9899332287
 H       -14.1695587230        0.2044940550        5.6047899060
 H       -13.3589911008        0.4592105420        3.9299773001
 H       -11.6012796759        8.7771481517        5.7571820278
 H        -9.8435881909        8.6437994221        5.9810565323
 H       -10.8081955754        7.6851203934        6.8503474706
 H       -12.0730091924        6.1036882162        3.4231839200
 H       -12.3639381242        7.9060310793        3.7563929118
 H       -12.6606927992        6.6406745488        4.9115784939
 H        -6.2570012734        8.3595506846        0.9842271595
 H        -5.8404139526        7.6481528083       -0.6210802699
 H        -6.3467392271        6.6023005241        0.8493154174
 H        -7.2982299444        8.2785770467       -2.2878720037
 H        -7.9782494348        9.5841597263       -1.0242266222
 H        -9.0685866568        8.6251438924       -1.7423921274
 H       -10.1709993124        0.5702284350       -2.6557115046
 H       -10.7368539125        2.2204323772       -2.2657666986
 H        -9.1881683061        1.7045717889       -1.5950198823
 H        -8.3096563196        0.0926942606       -4.1633657964
 H        -7.2927666472        0.8920613662       -3.0982625214
 H        -7.3231063653        1.4553632107       -4.8460976882
 H       -14.1264778583        0.5959941986       -9.7543875172
 H       -13.1417246942       -0.6496824013       -9.0176480061
 H       -13.0229020887       -0.3663627019      -10.8636043929
 H       -10.0578003997        1.6952379572      -10.5079914419
 H       -11.1290942938        0.5501193213      -11.4463816349
 H       -10.2392832403        0.0027276093       -9.9778409651
 Na       -8.4427052214        4.8644439734        2.3321725464
