117

 C        -7.4845843333       -5.8266920773        0.1169633155
 C        -7.7415361371       -4.5979727034        1.0303964449
 O        -6.8168184279       -3.9377787745        1.4634029195
 C        -9.3001561007       -4.1944166683        1.2536692824
 C        -9.4501314262       -3.4425027301       -0.3157856321
 O        -9.8526142525       -3.9773482357       -1.2918705599
 C        -8.6059701686       -2.1003432231       -0.5833200999
 C        -8.2218235417       -1.8186565114       -2.0427032883
 C        -8.2203827037       -0.2027493808       -2.1636222564
 O        -8.7608366925        0.6120421872       -1.3790542594
 C        -7.2855156804        0.4880386626       -3.2725092822
 C        -8.0080527247        1.8624205106       -3.8029103019
 O        -7.3735183538        2.8656747700       -3.9953325269
 C        -9.6046712020        1.9759944241       -4.1323018037
 C        -9.9568544309        3.4875572123       -4.4552489911
 C       -10.3615795666        4.4390433464       -3.2949544638
 O       -10.4207429028        3.9179899858       -2.1817325231
 C       -10.8886728186        5.8316096317       -3.4914468979
 C       -10.0965679073        6.8260438715       -2.5416223178
 O       -10.3220320817        6.8364235007       -1.3837098436
 C        -9.0610360791        7.7801269936       -3.1202543360
 C        -8.7728010996        9.1049869159       -2.3017566913
 C        -7.5496536045        9.1098567140       -1.4658561379
 O        -6.5159817831        8.4710641459       -1.7181195616
 C        -7.5801594113        9.8233826015        0.0623663246
 C        -8.3843433976        8.7383622552        0.8202326986
 O        -7.8862273079        7.7718774442        1.3878720113
 C        -9.9674817140        8.9297777063        0.9994834367
 C       -10.5866965096        8.8895585456        2.3687716949
 C       -11.5850391679        7.7177857629        2.4075984300
 O       -11.8605908695        7.0052996495        1.4417214952
 C       -12.3770786617        7.3807395872        3.7808733392
 C       -13.0054125447        5.8873464390        3.8599182018
 O       -12.4197977571        5.0494218751        4.5098563459
 C       -14.2708926963        5.6559993794        3.0606586472
 C       -14.4087162062        4.1556155807        2.7620980563
 C       -13.1868213463        3.7554283049        1.7607773656
 O       -13.1200379540        4.4778512053        0.7423290984
 C       -12.2021443709        2.5362577320        1.9697415513
 C       -10.7828736992        3.1726867115        2.3200231002
 O       -10.2862852743        3.9074045854        1.4722760125
 C       -10.0742056636        2.8079552694        3.5215511850
 C       -12.8063105584        1.5389959828        3.1299313259
 C       -12.1756168278        1.6478847196        0.5946208898
 C       -11.4356067162        7.6088221384        4.9574303402
 C       -13.3945092755        8.5418802539        3.8315152133
 C        -6.1088942562        9.7673100507        0.5930469201
 C        -8.2241055678       11.2564966576        0.1422473988
 C       -10.8261699044        6.1588941664       -4.9693672681
 C       -12.4121313681        5.7648303567       -3.0661277882
 C        -5.9420072725        0.5151027436       -2.5074551218
 C        -7.2526810365       -0.4172874782       -4.5806230111
 C       -10.4064275423       -5.1821174135        1.4587166720
 C        -9.2501079611       -3.0706633838        2.3169520933
 H        -6.4618696733       -5.8314616613       -0.0877168366
 H        -8.2776975666       -5.7905118943       -0.6692966592
 H        -7.8282488086       -6.7147379837        0.7263272222
 H        -7.7056388913       -2.2747364494       -0.0603464671
 H        -9.2219598263       -1.2143050976       -0.2315987394
 H        -8.9681209857       -2.2263805991       -2.7452546776
 H        -7.2398305635       -2.3100738556       -2.0569463919
 H       -10.2902411081        1.7099586697       -3.3342779217
 H        -9.6614759784        1.4029239605       -5.0575009070
 H       -10.8501665926        3.5034604447       -5.1053300008
 H        -9.1718580595        4.0935821044       -4.9558185085
 H        -9.1683137496        7.9345737072       -4.2109618817
 H        -8.0712115011        7.2085259179       -3.1605649401
 H        -9.6841824205        9.2824771850       -1.7496732906
 H        -8.7262615516        9.8793611950       -3.1042648678
 H       -10.3418681438        8.0610776788        0.4356555660
 H       -10.3861677824        9.7805126602        0.4772809477
 H       -11.0100836632        9.9038608087        2.5900362711
 H        -9.7880138102        8.8668935409        3.0623362436
 H       -14.1833114382        6.3333128249        2.1948496938
 H       -15.1292517317        5.9367044354        3.6301260791
 H       -15.4232257329        3.8548482799        2.2441257450
 H       -14.4396946125        3.6786882602        3.6716164398
 H       -10.6840654704        3.0276308417        4.4547368141
 H        -9.2117271702        3.4069531805        3.6742718302
 H        -9.8122962281        1.6792765404        3.4869012474
 H       -12.9703672904        2.0950412972        4.0492910674
 H       -11.9237108543        0.7818661122        3.2531878530
 H       -13.7860432876        1.3619570527        2.7420287661
 H       -11.5722176821        2.2759211358       -0.0995010662
 H       -13.3021476930        1.5096780292        0.4540856741
 H       -11.6022845798        0.7291474182        0.7614467389
 H       -11.0928205352        8.6261465567        4.9192109837
 H       -10.6082416691        6.8320798147        5.0628988900
 H       -11.9534256403        7.5003003634        5.9578056877
 H       -13.7946192847        8.9414631548        2.8917063554
 H       -12.9348563057        9.3915930226        4.2655147742
 H       -14.1196436859        8.2526653221        4.5605351287
 H        -5.6325771555        8.7475367107        0.6358983090
 H        -6.2336339851       10.2218798788        1.5540822887
 H        -5.4009690122       10.4390713601        0.1673114695
 H        -7.8831905594       11.9893281957       -0.5263304808
 H        -8.1930633658       11.6959733526        1.0866415445
 H        -9.3020285183       11.2245662370       -0.1580301570
 H       -11.2794270240        5.3394210674       -5.5132656090
 H        -9.8301772798        5.9199530216       -5.2422403147
 H       -11.0871629843        7.1851967339       -5.2257643721
 H       -12.6741024744        5.5006320806       -2.0565767425
 H       -12.8290259014        4.7942933261       -3.5500954304
 H       -13.0159710085        6.5669737542       -3.4595488984
 H        -5.0932984410        0.6368324813       -3.1495256335
 H        -5.6972280450       -0.4512882771       -2.0985098847
 H        -5.9395793786        1.2633173919       -1.8079252257
 H        -8.1672807092       -0.4765399459       -5.0724305530
 H        -6.8414797665       -1.4292484920       -4.4673792381
 H        -6.5527751941       -0.0744083200       -5.2284691747
 H       -10.1081306103       -5.8763993294        2.3303140489
 H       -10.7068637016       -5.8053602300        0.6130362581
 H       -11.3666239881       -4.7372151660        1.6246394441
 H        -8.7948262609       -2.1209791812        2.1122667557
 H        -8.8393836317       -3.3824434535        3.2614945590
 H       -10.3065884755       -2.8592918395        2.6261048734
 Na      -10.9621933251        4.8750259208       -0.2084023942
