117

 C        -7.6608093064       -5.9422572074        0.3044485490
 C        -7.8686518227       -4.5480109951        1.0555760473
 O        -6.9326985479       -3.9042516929        1.3149393359
 C        -9.3357280121       -4.0038987369        1.1127711870
 C        -9.3383689933       -3.4958499646       -0.3182514732
 O        -9.9269385485       -4.2105555455       -1.1736937748
 C        -8.6998063964       -2.1408397888       -0.4421487229
 C        -8.2779848227       -1.7295075028       -1.9768227263
 C        -8.2704489718       -0.2638411814       -2.1396167134
 O        -8.8427712841        0.4010286949       -1.3251653726
 C        -7.3708728804        0.4368577170       -3.2069240769
 C        -8.1013814180        1.8580457002       -3.6928410310
 O        -7.3850857916        2.7485404464       -4.0828069076
 C        -9.6420737994        2.0101360380       -3.8744838964
 C        -9.9949328754        3.3238944092       -4.3890219451
 C       -10.3858710486        4.2354948783       -3.2313686607
 O       -10.3688769619        3.8235538856       -2.0804570922
 C       -10.7693201708        5.7501332752       -3.6491293696
 C        -9.8931077060        6.8709364895       -2.6413653274
 O       -10.1263296682        6.8145890946       -1.4419395616
 C        -8.8985448074        7.8002319547       -3.2196271004
 C        -8.8992517339        9.1156568273       -2.3706594118
 C        -7.5721594644        9.1266474804       -1.4798401412
 O        -6.6853401968        8.4020769734       -1.7492122425
 C        -7.6102857917        9.8147521568       -0.0322911157
 C        -8.4695284741        8.7669215187        0.8022721072
 O        -7.8903152507        7.8971337224        1.3609551436
 C        -9.9907307043        8.9239620045        0.8131858886
 C       -10.5591886834        8.6594785814        2.2124499914
 C       -11.5181797761        7.5774912473        2.2803398698
 O       -11.9339323027        7.0594298260        1.2700866027
 C       -12.2677805503        7.4480882371        3.8159612188
 C       -12.8792502067        6.0439769214        3.8023463974
 O       -12.5102483242        5.0976806170        4.4718658678
 C       -14.1878743541        5.7703430011        3.0593114088
 C       -14.2745789658        4.3062654565        2.8003945954
 C       -13.2886877653        3.8907583966        1.7808978448
 O       -12.9900555285        4.5292636828        0.7504051723
 C       -12.3335562252        2.6632094641        2.0751972907
 C       -10.8116937204        3.1148963260        2.3920618047
 O       -10.2215040542        3.9162902371        1.7676635172
 C       -10.0640215374        2.5769258891        3.6778281921
 C       -12.7898462200        1.6025525389        3.1389589344
 C       -12.1935831278        1.7303634268        0.7765613226
 C       -11.5665139485        7.5658524460        5.0994728052
 C       -13.4790272813        8.5418354155        3.6107505366
 C        -6.0906012941        9.8007377406        0.4262912753
 C        -8.0903636362       11.1843840108        0.0832692456
 C       -10.7074120162        6.1534724815       -5.2402494115
 C       -12.2959342455        5.9562301957       -3.2037885723
 C        -6.0032977884        0.5725629923       -2.5667289035
 C        -7.1342484311       -0.5179268943       -4.4057556176
 C       -10.2659180325       -5.1626796558        1.4546619093
 C        -9.4682942267       -2.8434027853        2.1934524738
 H        -6.6477646433       -5.8125665432       -0.1666261611
 H        -8.6120469454       -5.8513902015       -0.3159463285
 H        -7.7484540743       -6.7857312042        0.8417724245
 H        -7.8936244808       -2.1853986488        0.3775183698
 H        -9.5478908201       -1.5045444074       -0.2137474769
 H        -9.0382610677       -2.1269008563       -2.5752981280
 H        -7.2659462489       -2.1974525638       -2.1370658062
 H       -10.1405383733        1.8893561764       -2.9522910282
 H        -9.8481970200        1.2536322464       -4.6377382624
 H       -10.7644703108        3.3029174192       -5.1851317066
 H        -9.1669923765        3.9530538055       -4.7400114204
 H        -9.0124465622        7.8764385008       -4.2334400615
 H        -7.8786901301        7.4343821488       -3.0961042652
 H        -9.7959854420        9.1637548862       -1.6975620964
 H        -8.9626285733        9.9793451106       -3.0586723704
 H       -10.4299458024        8.2566063878        0.1115786466
 H       -10.3030584832        9.9086584292        0.5443862626
 H       -10.9430506222        9.6337505471        2.5335869282
 H        -9.7386346000        8.5453184496        2.9171261093
 H       -14.2771153055        6.3019762434        2.2128959712
 H       -14.9989670539        5.9363137848        3.7585740777
 H       -15.2675338454        3.9831882763        2.4025904210
 H       -14.1751818666        3.7162565483        3.7332116197
 H       -10.2728806624        3.2012464390        4.5602486486
 H        -8.9966483073        2.8254526750        3.5253316676
 H       -10.1069489864        1.5175959349        3.9427268205
 H       -12.8992421529        2.1864579381        4.1561808097
 H       -11.8947851551        1.0412685921        3.1745850786
 H       -13.7354462723        1.3001853121        2.8574648274
 H       -11.7527062507        2.4259947191        0.1178592988
 H       -13.1200236144        1.4192152951        0.6040022358
 H       -11.3617509779        0.9358445367        0.8964610122
 H       -11.5394805223        8.6063031840        5.3956840480
 H       -10.5675941901        7.0471254166        5.1397243845
 H       -12.0685940967        7.0236175491        5.8501086288
 H       -13.7824953457        8.5247719986        2.5746666208
 H       -13.1431377370        9.5513845818        3.7333157312
 H       -14.2404722789        8.3650107990        4.3769659120
 H        -5.7013950740        8.8050001164        0.2576963787
 H        -6.0078424809       10.1095835959        1.4615813328
 H        -5.3481286949       10.5475087270       -0.0809984297
 H        -7.5743259195       11.9826427623       -0.3174454528
 H        -8.2844855821       11.4040056202        1.1305686097
 H        -9.0267282589       11.3082468623       -0.4144732585
 H       -11.4439092524        5.6880331032       -5.8475604341
 H        -9.8727612391        5.6227035072       -5.6267890155
 H       -10.5824870999        7.1787345743       -5.3229233235
 H       -12.5553932637        5.9754236861       -2.1944844906
 H       -12.8626088308        5.0431618306       -3.4805172060
 H       -12.7561298318        6.7378719547       -3.7393392769
 H        -5.1985804614        0.6298489802       -3.2629473088
 H        -5.7329293273       -0.2491376834       -1.9770972887
 H        -6.0060759262        1.5539185789       -1.9586711881
 H        -7.9725241097       -0.6487362055       -5.1256129978
 H        -6.7743302374       -1.4970530979       -4.1847931645
 H        -6.2331759223       -0.1297207810       -4.9660276005
 H       -10.1035504215       -5.4922587377        2.4350756367
 H       -10.4519124017       -6.0343726735        0.8124489404
 H       -11.1941488823       -4.7386820155        1.4415003856
 H        -9.5469715174       -1.7538967220        1.8741218842
 H        -8.7120680154       -2.8379547114        3.0384667376
 H       -10.4058456078       -3.0179729853        2.7442007219
 Na      -10.8435333046        4.9994567228       -0.0772250187
