117

 C        -7.7049827765       -5.9930835262        0.8030576462
 C        -7.8936878614       -4.5935507408        1.2435897873
 O        -6.9477008350       -3.7901767631        1.2324680828
 C        -9.5319434141       -3.9857811394        1.1729053094
 C        -9.5478089582       -3.6269740731       -0.3693304399
 O        -9.9453164662       -4.3057567357       -1.2412101412
 C        -9.0864091871       -2.1114096612       -0.5672332983
 C        -8.4995953158       -1.8646776389       -1.9536719014
 C        -8.3317541591       -0.3477596031       -2.0862676722
 O        -9.0427294670        0.3830655607       -1.3543035987
 C        -7.3684630960        0.3268719119       -3.1054935344
 C        -7.9863367976        1.6135567664       -3.5942503548
 O        -7.3342207485        2.4165857692       -4.2108085301
 C        -9.5953686056        1.8436117921       -3.4522836467
 C       -10.1231687615        3.1540438417       -4.2427157306
 C       -10.4056791797        4.2938458259       -3.2128768199
 O       -10.4827605076        4.0805925756       -2.0044175791
 C       -10.5576710520        5.7641229185       -3.7966226590
 C        -9.6886790278        6.6281326983       -2.8448884288
 O        -9.6164449881        6.6186690293       -1.6131233934
 C        -9.0103729107        7.8879189794       -3.5508006331
 C        -8.8400171150        9.1173370067       -2.6295937418
 C        -7.6244636986        9.0422301504       -1.6858474184
 O        -6.7343374051        8.2707745414       -1.9700902827
 C        -7.5662418491        9.7092434926       -0.2735611458
 C        -8.3551655950        8.9213519676        0.7796779670
 O        -7.7659697555        8.0696442763        1.4483841767
 C        -9.9747877864        8.9628422034        0.8693899014
 C       -10.3563859307        8.3656189425        2.3017951507
 C       -11.6347640403        7.6191243653        2.3292166581
 O       -11.9335429574        6.8724115596        1.3883402728
 C       -12.4838601260        7.6474959184        3.5688707685
 C       -12.9755965537        6.0518730122        3.6774784830
 O       -12.4272011517        5.2060669988        4.3440887873
 C       -14.1806380958        5.7205359897        2.9553122066
 C       -14.4257697226        4.2173764402        2.6301832228
 C       -13.0949552480        3.8115116488        1.8567532581
 O       -12.8082512545        4.5107067038        0.9025597637
 C       -12.2405207701        2.7005270909        2.2642559204
 C       -10.7883157725        3.0236260113        2.7717337720
 O       -10.1447218103        3.9729617080        2.2292524746
 C       -10.1333698743        2.2732203346        3.8777605180
 C       -13.0978500624        1.8313034872        3.3363489835
 C       -11.9888537012        1.9098898994        0.8892446269
 C       -11.5001089294        8.0344361094        4.7567510808
 C       -13.5750660030        8.7217830795        3.4626201944
 C        -6.0330394119        9.7217754556        0.2674469671
 C        -8.0652307475       11.2512602204       -0.3646486383
 C       -10.2130901624        5.8322795200       -5.4097132711
 C       -11.9910975467        6.2351373679       -3.3773328512
 C        -6.1100249663        0.9415132331       -2.3682671854
 C        -7.2194600902       -0.6336497684       -4.2802964332
 C       -10.5852989486       -5.1298137156        1.5808432496
 C        -9.6061524415       -2.8612010021        2.1596723253
 H        -6.6532429883       -6.0307615381        0.7732497791
 H        -8.3409617889       -6.1579447169       -0.0524964609
 H        -8.0588187114       -6.6072550464        1.7360481715
 H        -8.3948303795       -2.0117509799        0.2119708809
 H        -9.9348610899       -1.3667201233       -0.4163451456
 H        -9.2252921697       -2.2976256253       -2.7127402832
 H        -7.5561882002       -2.3075287939       -1.9418223418
 H        -9.6337877627        1.9332916719       -2.3229337789
 H       -10.1554611051        0.9990626494       -3.8637010027
 H       -11.1116090372        2.9642393008       -4.6470410312
 H        -9.5547212461        3.5575059266       -5.0786936527
 H        -9.7969169040        8.2648022984       -4.3507854782
 H        -8.0163704624        7.6787279654       -4.0619562710
 H        -9.6264733669        9.1598245623       -1.8529933885
 H        -8.9238751434       10.0891575122       -3.2205211996
 H       -10.5840288866        8.3547838582        0.1506143212
 H       -10.4193250875        9.9785185142        0.8497994302
 H       -10.3734588319        9.2562467789        2.9272361024
 H        -9.5252240539        7.7987523234        2.7782058524
 H       -14.2640028369        6.2963393911        1.9054440699
 H       -14.8921841890        6.1031629233        3.7439318420
 H       -15.3041677397        4.0304014276        1.9818240368
 H       -14.6240878304        3.7420760816        3.5279742337
 H        -9.9404458557        2.9566260319        4.6809867240
 H        -9.2386029602        1.7479418754        3.7648457677
 H       -10.8261357363        1.4741686310        4.2294316235
 H       -12.9119595800        2.3066597431        4.2267312835
 H       -12.6172821141        0.8229474942        3.2707669057
 H       -14.1137044651        1.9753185777        3.1185279649
 H       -11.6446796996        2.6134701978        0.1359671940
 H       -12.9246820650        1.2969625532        0.6758008391
 H       -11.1629650522        1.3373055973        1.1636993156
 H       -11.4046992547        9.0658183249        4.9171921807
 H       -10.5615555237        7.5818511098        4.4871606793
 H       -11.6403988726        7.5029691762        5.7010376821
 H       -14.1997272248        8.5293883519        2.5610276145
 H       -12.9968735184        9.6381570243        3.1233042581
 H       -14.0380006239        8.9246924013        4.4442011263
 H        -5.6604119735        8.6652967776        0.3085845805
 H        -5.8583972613       10.2831198676        1.1883081309
 H        -5.4368126088       10.1974604850       -0.4102205557
 H        -7.3154406461       12.0394700430       -0.5870363752
 H        -8.7160785285       11.6633420081        0.3937106676
 H        -8.6613866739       11.4445702568       -1.3112944755
 H       -10.7186351407        4.9741278268       -5.8617798888
 H        -9.2049175928        5.7386428483       -5.7938350449
 H       -10.7532553593        6.7769075968       -5.7386366316
 H       -12.1200439704        5.9449008929       -2.3198940935
 H       -12.9349366799        5.8772727051       -3.8918449944
 H       -12.1111286898        7.3379490517       -3.4104390443
 H        -5.5701031628        1.5910302603       -3.1473956639
 H        -5.3118571512        0.1470132221       -2.0638223947
 H        -6.3543768886        1.5910960265       -1.5817841729
 H        -8.1796681653       -1.1745012834       -4.4335979607
 H        -6.5020861114       -1.5538554835       -4.0824098145
 H        -6.9481506864       -0.2090464317       -5.2275666547
 H       -10.4305286834       -5.5561931708        2.6798639536
 H       -10.5463378145       -5.9900202725        0.9386729597
 H       -11.6736580684       -4.7474532159        1.5636534301
 H       -10.5513537727       -2.3464045441        2.0506699382
 H        -8.9121409384       -2.1016345597        1.9222242050
 H        -9.3888199596       -3.0382497204        3.2387196544
 Na      -10.8104601376        5.3727373862        0.0763953207
