117

 C        -8.0446764047       -5.8605602390        2.6581874784
 C        -8.3811289866       -4.7922583588        1.7848131718
 O        -7.6092285330       -3.8535791021        1.5807942911
 C        -9.9458427385       -4.6393955502        1.2789267216
 C        -9.8905101719       -3.9008916577       -0.0606397339
 O       -10.2634765375       -4.5538858587       -1.0003108240
 C        -9.4840420672       -2.3875918124       -0.0350421748
 C        -9.1539855388       -1.8155768348       -1.4377101629
 C        -8.4624360236       -0.4312284203       -1.4104487976
 O        -8.6479350007        0.4252748663       -0.5295643966
 C        -7.6959390599        0.0323254804       -2.6747741477
 C        -8.5459115030        1.1601592941       -3.4534246576
 O        -8.1195740778        1.4492460468       -4.5238351984
 C        -9.8149658279        1.9295395658       -2.8623476948
 C       -10.4639011901        2.9330672062       -3.8096297637
 C       -10.4797000537        4.3520712809       -3.1028597988
 O       -10.7717856524        4.3343372438       -1.9293746603
 C       -10.3380170918        5.6996410382       -3.9523824051
 C        -9.6125192229        6.7697751988       -3.0264556445
 O        -9.8135030332        6.8009303956       -1.8184244876
 C        -8.7458888086        7.9815516028       -3.7791787552
 C        -8.7877427584        9.1320014549       -2.7446760937
 C        -7.4507434121        8.8385844341       -1.8471665876
 O        -6.7936025175        7.8441016106       -2.0079204648
 C        -7.2002419580        9.8154815720       -0.6613959022
 C        -7.5421343265        8.9602798093        0.7094429851
 O        -6.7763360542        8.6422692567        1.5658977516
 C        -9.0908754666        8.4026590868        0.6148727460
 C        -9.9026735318        8.6083468315        1.9405559003
 C       -11.2376087171        7.8779313602        1.8266546596
 O       -11.5175015080        7.3645056938        0.7549656692
 C       -12.3134588090        8.0598725366        2.9800124227
 C       -12.8712723921        6.6028402742        3.2911177126
 O       -12.2678237378        6.0516575455        4.1802490745
 C       -14.0975904797        5.9529227627        2.4223773563
 C       -14.1316110551        4.3884131281        2.3334066656
 C       -12.8926577931        3.8377054262        1.5899491497
 O       -12.7087035352        4.1856418432        0.4200523643
 C       -12.0254441190        2.8160620099        2.2536440713
 C       -10.7637992596        3.4729553782        2.8880632361
 O       -10.1352720525        4.1642152665        2.0412814169
 C       -10.3680619275        3.3669220068        4.3076999045
 C       -12.8647423633        1.9019984759        3.2661991997
 C       -11.5306492742        1.8726749981        1.2143400206
 C       -11.6698339998        8.6519561150        4.2971229761
 C       -13.6025535464        8.9741834213        2.5890570512
 C        -5.6880355406       10.2068809343       -0.4845118611
 C        -7.9827261481       11.1016630889       -0.5562858666
 C        -9.6664682345        5.4111946056       -5.3446536859
 C       -11.9026095434        6.2453471951       -4.1030030509
 C        -6.3265148953        0.7358443823       -2.1314422253
 C        -7.3845589513       -1.1798929101       -3.6342878159
 C       -10.6781326510       -6.0775737243        1.2170011182
 C       -10.5001412910       -3.7479020440        2.4740429926
 H        -7.2297980661       -5.5608774051        3.3341217777
 H        -7.6387027662       -6.5123698544        1.8745547282
 H        -8.9299558319       -5.9838127091        3.2766431384
 H        -8.6174238121       -2.3732399514        0.6014361053
 H       -10.2109565904       -1.7999400846        0.6025191907
 H       -10.1406789133       -1.6593595431       -2.0398957240
 H        -8.6135439904       -2.4803284223       -2.0512568596
 H        -9.4585777096        2.4373795423       -1.9544938843
 H       -10.6121386947        1.3170359272       -2.4707979243
 H       -11.5328103517        2.6521744283       -3.7294792660
 H       -10.3104103868        2.9896102696       -4.8850733687
 H        -9.2922509632        8.3814083029       -4.5895019104
 H        -7.7970111906        7.6001811220       -3.8945320115
 H        -9.6804050018        9.3424130121       -2.1596277103
 H        -8.5677410920       10.0993381411       -3.2181121649
 H        -8.9542741448        7.3787894485        0.2759102680
 H        -9.7363847286        8.8395708530       -0.1515806924
 H       -10.0489362983        9.6582982144        1.9961474198
 H        -9.1719675592        8.4122945077        2.7500155691
 H       -13.9599127774        6.3574483085        1.4160937555
 H       -14.9436772010        6.2486409292        2.8734564392
 H       -15.0308027622        4.0263509902        1.7109733696
 H       -14.2975443475        4.0341948583        3.3073373435
 H        -9.2888467182        3.3483472251        4.5705071014
 H       -10.7382502957        2.4630769919        4.7306968874
 H       -10.8088206043        4.1922771672        4.9764193415
 H       -13.2191876288        2.6999103863        3.9499387692
 H       -12.0505120803        1.3495226523        3.8524751914
 H       -13.4844866975        1.2003233889        2.8915469701
 H       -11.3664153551        2.4523813909        0.3447932910
 H       -12.3463622777        1.1742872930        1.0477171902
 H       -10.6797431418        1.2541242727        1.6662874290
 H       -11.5254302509        9.7071247087        4.1609661928
 H       -10.6148445926        8.3855829103        4.4482475452
 H       -12.3696053526        8.4706892940        5.1753918899
 H       -14.2054830033        8.5397143888        1.8177714855
 H       -13.1114264456        9.9131834428        2.3893085911
 H       -14.1868712374        9.0297827412        3.4944409564
 H        -5.0806299300        9.2690131168       -0.3996501406
 H        -5.5068888486       10.6886228994        0.4870525598
 H        -5.3585551188       10.7313498556       -1.3115561932
 H        -7.4479504160       11.9266161292       -1.0102160489
 H        -8.1362725472       11.5551292256        0.3862177262
 H        -8.9940011471       11.0104739944       -0.9207441227
 H        -9.5817351463        4.3585171597       -5.5617185586
 H        -8.7823892260        5.9837377665       -5.4612197488
 H       -10.2808639574        5.6429501219       -6.2192142241
 H       -12.4315569727        6.0046635935       -3.2018246349
 H       -12.5353271339        5.7607049127       -4.9159750244
 H       -12.0294045327        7.2920366035       -4.0627399557
 H        -6.0293332624        1.4036153042       -2.9164553882
 H        -5.6072589890       -0.0747037832       -1.9774244343
 H        -6.3941640053        1.2087592678       -1.2129712881
 H        -8.2383259064       -1.8083427330       -3.6557894067
 H        -6.3942377090       -1.6668713683       -3.3575715934
 H        -7.3054220699       -0.7551911707       -4.5771042113
 H       -10.9804781283       -6.4337389589        2.2164518793
 H       -10.2247693576       -6.8879441378        0.6588402343
 H       -11.5564129186       -5.7889481774        0.8132172267
 H       -11.2911800720       -3.1239889624        2.1789512009
 H        -9.7951958599       -3.2108690908        3.0235622048
 H       -10.9731485094       -4.5805832644        3.0274606331
 Na      -10.8527778803        5.5081389224       -0.0112526686
