117

 C        -8.8075142206       -5.8511434640        3.7074165524
 C        -8.8633242206       -4.8632117530        2.3171683230
 O        -7.8835522717       -4.1448716357        2.0735093806
 C       -10.1536017802       -4.9469095174        1.5443321648
 C       -10.2321766431       -3.9763345593        0.3176934667
 O       -10.3796074315       -4.3796574269       -0.8600595985
 C        -9.7006314859       -2.5223760381        0.5242755913
 C        -9.3817167544       -1.9610028946       -0.8955009263
 C        -8.7667533804       -0.5059405039       -0.9626649109
 O        -8.8932718264        0.4154531226       -0.2063825229
 C        -7.9926989739       -0.1937696564       -2.5054879110
 C        -8.8103913980        0.4932890971       -3.5742050622
 O        -8.5639890020        0.3931028473       -4.7744751329
 C        -9.9290004652        1.4050913038       -2.9693075063
 C       -10.0155025925        2.6608935875       -3.8593980583
 C       -10.2947967080        4.0763133110       -3.1603599598
 O       -10.7061984908        4.0850826936       -2.0204970483
 C       -10.2895110672        5.4743733151       -3.9787913095
 C        -9.8191491920        6.6311282690       -3.1574287717
 O       -10.3278624600        6.9535733795       -2.1073105614
 C        -8.6525873859        7.5087211632       -3.6355695554
 C        -8.5293536136        8.8088288490       -2.7264705468
 C        -7.3404061250        8.6946686168       -1.8062818756
 O        -6.6984809268        7.6471437106       -1.9702988685
 C        -7.0698147556        9.6801154350       -0.5940288858
 C        -7.4761726348        9.0325140521        0.8179605535
 O        -6.9133055489        9.4556426122        1.7804273976
 C        -8.4754704675        7.9278448240        0.9286973440
 C        -9.5099012591        8.3744977580        1.9820479185
 C       -10.9673141624        8.0988450070        1.5451407423
 O       -11.3025925890        7.4817312692        0.5341316093
 C       -12.1598847158        8.5367404554        2.5904989207
 C       -12.7430737030        7.0654343321        2.9821138308
 O       -12.2382065901        6.5423743950        3.9473587192
 C       -13.8940753260        6.3797893510        2.0884796581
 C       -13.9987888541        4.8462583593        2.3120226136
 C       -12.8802341503        4.1613446513        1.4996304451
 O       -12.9600755597        4.3615669447        0.3356781765
 C       -11.6540831769        3.2905555486        2.2038630299
 C       -10.4610947157        4.2548707944        2.5596695992
 O        -9.9885199371        4.9887505956        1.6983495861
 C        -9.9050740668        4.1649816720        4.0278805366
 C       -12.2202751370        2.5365164511        3.3356629300
 C       -11.2128907687        2.2569517090        1.0361491914
 C       -11.6035857063        9.0959697261        3.8744832118
 C       -13.2868375972        9.5273193633        2.0771458111
 C        -5.6182591011       10.0655896369       -0.5351573173
 C        -7.9714937933       10.8674441351       -0.7238595258
 C        -9.5392348765        5.4412651162       -5.3164449133
 C       -11.8440140918        5.7288823994       -4.1720088675
 C        -6.8638113858        0.8691879675       -2.2486112798
 C        -7.3350646895       -1.5154233450       -3.1986477866
 C       -10.1917131228       -6.5533541026        1.0188101827
 C       -11.3910546553       -4.7721208625        2.5030602790
 H        -7.7952094285       -6.2102410156        3.6151869855
 H        -9.5343111711       -6.6826917971        3.8399670991
 H        -8.7795657692       -5.0488353716        4.4202258972
 H        -8.7282983042       -2.3886849997        1.0603430177
 H       -10.4848374856       -2.0252480253        1.1050526394
 H       -10.3304628587       -2.0347764165       -1.4712154168
 H        -8.7739060581       -2.5787530208       -1.5809376451
 H        -9.7472629820        1.6207704184       -1.9097872721
 H       -10.7322632523        0.7032006865       -3.0263371935
 H       -10.7705131182        2.6340844806       -4.6580816557
 H        -9.0939830946        2.6740257503       -4.4932990999
 H        -8.8616548719        7.7087526241       -4.5946248899
 H        -7.7828169472        6.9758661782       -3.3185413006
 H        -9.1740311530        8.8469037210       -1.8654461816
 H        -8.5300910849        9.7937534062       -3.2418183484
 H        -8.0330657486        7.0257236336        1.3174021424
 H        -9.0681923654        7.6122866370        0.0860714342
 H        -9.4243405712        9.4345310659        2.2391220027
 H        -9.3193184722        7.8119514305        2.8735741523
 H       -13.7246655961        6.6307820739        1.1132112482
 H       -14.9272851532        6.6315836592        2.4393934474
 H       -14.9497472886        4.5006887842        2.0090466105
 H       -13.9847910529        4.7117629304        3.4037157607
 H        -9.1582319483        4.9541729259        4.2066426582
 H        -9.2529967940        3.2361563543        4.0939163258
 H       -10.5568337709        4.3086285893        4.8658125861
 H       -12.6955875975        3.0925653259        4.0558252079
 H       -11.4567000355        2.0675256776        3.8466127249
 H       -12.9667380889        1.7797359435        2.9721704724
 H       -11.2521103320        2.9267622310        0.1183818753
 H       -12.0842386458        1.5811402491        0.9228862704
 H       -10.4252038868        1.6756251588        1.1140283611
 H       -11.0752798082       10.1051523779        3.8411769437
 H       -10.8638158666        8.3471174713        4.2727573655
 H       -12.3940931887        9.1604830351        4.6300026308
 H       -13.5159454821        9.2213336951        1.0573986688
 H       -12.9264916848       10.5309243211        2.1749571762
 H       -14.0361848085        9.3365518243        2.8293799053
 H        -4.9842771309        9.2487213100       -0.7342842529
 H        -5.5469659460       10.5057623293        0.4244936228
 H        -5.3688612785       10.9346278700       -1.2451153661
 H        -8.1750488355       11.1930553808       -1.7362696930
 H        -7.7234528930       11.7008263883       -0.0423939105
 H        -8.9543461180       10.5133089883       -0.3484197299
 H        -8.5483064358        5.7838687159       -5.0224254973
 H        -9.8523746540        6.2211984449       -6.0442601151
 H        -9.5736039390        4.5106715156       -5.8483249138
 H       -12.2888375868        6.2375367496       -3.2651541931
 H       -12.4780353211        4.9451249602       -4.3351943020
 H       -11.9529860702        6.3923424637       -5.0652022318
 H        -6.1191512710        0.8189595599       -2.9637884780
 H        -6.4506337981        0.6584434542       -1.3331357289
 H        -7.4419069746        1.8161263402       -2.1731303336
 H        -8.0963857254       -2.0940889820       -3.6472750673
 H        -6.9200120047       -2.0096214479       -2.4131099467
 H        -6.3940853629       -1.2049362612       -3.7191633788
 H       -10.3517704105       -7.2490975324        1.7460630005
 H        -9.3474356507       -6.7349920268        0.5231753390
 H       -10.8649675105       -6.5989775173        0.1744388617
 H       -11.6734149010       -5.6475031198        3.0498080904
 H       -12.2214229123       -4.4024364916        1.9066775872
 H       -11.0900499946       -4.0050425112        3.1013282104
 Na      -11.0013214076        5.5245755549       -0.3365287028
