117

 C        -9.7853691945       -5.1446978487        4.2617821320
 C        -9.2056766308       -4.8416337408        2.9118056581
 O        -8.1467312207       -4.4533342311        2.4597668507
 C       -10.4045728845       -5.1579499810        1.6587452333
 C       -10.2114072342       -4.3393004667        0.2266941496
 O       -10.7352160293       -4.7674600414       -0.7435121560
 C        -9.3306872048       -2.9785123841        0.2074960382
 C        -9.9340916052       -2.2451223701       -1.0300717784
 C        -9.2544534298       -0.8346157216       -1.0203689720
 O        -9.4974489832       -0.0643681406       -0.1250930421
 C        -8.0558586791       -0.4754578457       -2.1078668422
 C        -9.0368254260       -0.0232735237       -3.1998863823
 O        -9.3834929813       -0.8232357414       -4.0601824760
 C        -9.7394452028        1.3412616652       -3.2182135322
 C        -9.2220459869        2.5379040486       -4.0217936634
 C        -9.6689201240        3.8645435929       -3.4604092925
 O        -9.9383667244        3.9952366318       -2.2844330128
 C       -10.1259416459        5.0617357866       -4.3780792089
 C        -9.6993004134        6.4321893538       -3.6064863339
 O       -10.4685591455        6.8118727993       -2.7179323863
 C        -8.3555337948        7.1452572232       -3.8169821816
 C        -8.2906766818        8.4329186135       -3.0201310944
 C        -7.2309584328        8.2352940206       -1.7667624639
 O        -6.9074779825        7.1211943293       -1.4442501711
 C        -7.0595538340        9.4173824489       -0.7970333302
 C        -7.5125637339        9.0985156490        0.6841987902
 O        -7.0253008306        9.8529265664        1.5613974149
 C        -8.4092098751        8.0129749190        1.0585976461
 C        -9.4874147966        8.5252268146        2.1429236452
 C       -10.9124360946        8.5879576540        1.5591656648
 O       -11.2348031909        8.0795837950        0.5088019079
 C       -12.0770715657        8.8683861971        2.5631677928
 C       -12.5263725856        7.4888071614        3.0867915176
 O       -11.9289652602        6.8558124329        3.9632919543
 C       -13.7556390671        6.8304013327        2.5775552295
 C       -13.8279886317        5.3091063677        2.6231353252
 C       -12.7943869939        4.7091366752        1.6945507124
 O       -12.9208041734        4.9407090364        0.4764123567
 C       -11.6429565330        3.8000597373        2.1644248925
 C       -10.4109211367        4.8804713189        2.4026431773
 O       -10.2435335859        5.7151342624        1.5485435305
 C        -9.5226755214        4.8212602324        3.6137708278
 C       -11.7473822327        2.9919800708        3.5354797580
 C       -11.4183902081        2.6745567060        0.9945510461
 C       -11.5918179852        9.6401067409        3.8185689317
 C       -13.2136014253        9.4933037958        1.6776482628
 C        -5.4799882605        9.8557608909       -0.5609602393
 C        -7.9066220846       10.7982350916       -1.2349799280
 C        -9.6639208121        5.1441385354       -5.8560972952
 C       -11.6210310090        5.0278812748       -4.4726509899
 C        -7.2995156471        0.7564207042       -1.5808461211
 C        -7.1227549340       -1.6070170458       -2.3541515062
 C        -9.9498903026       -6.6080808003        1.3664100933
 C       -11.8439961617       -4.9429652669        2.2236297275
 H        -9.0710591897       -5.4355478012        4.9816497602
 H       -10.4072642804       -5.9622841822        3.9560390225
 H       -10.5977240797       -4.4399029295        4.5909856766
 H        -8.2632959116       -3.3087942108        0.0307987512
 H        -9.4325258743       -2.2917283502        1.0350087281
 H       -11.0109289806       -1.9732063269       -0.9735182431
 H        -9.8806488657       -2.9294945389       -1.9512091311
 H        -9.9024251368        1.7284142056       -2.2552356453
 H       -10.6759787755        1.0686878449       -3.7110683900
 H        -9.5629721473        2.3966748881       -5.0560322768
 H        -8.1075005130        2.5613391838       -4.1661913297
 H        -8.2641352375        7.4203380244       -4.8999569820
 H        -7.6156376850        6.5736913326       -3.3733567418
 H        -9.3147125036        8.7260854075       -2.8249479984
 H        -7.9852811356        9.1153103883       -3.7838657642
 H        -7.8815288106        7.2614944805        1.6190907772
 H        -8.8300821650        7.5638549652        0.1767347163
 H        -9.0593594933        9.4423516898        2.5859706997
 H        -9.5879451688        7.8679925079        2.9901619412
 H       -14.1135684955        7.1761481646        1.5277490932
 H       -14.4362758615        7.4118102672        3.2015166503
 H       -14.7489715203        4.8609798102        2.3475713803
 H       -13.5850152830        4.8009204388        3.5379311243
 H        -8.5456293625        5.2410501366        3.3030232787
 H        -9.3377822429        3.8352900353        4.0041358303
 H        -9.8941148663        5.5460183463        4.3968839009
 H       -11.6866001875        3.5773642383        4.4433738492
 H       -11.0368587406        2.2316780197        3.5293336146
 H       -12.5818017316        2.4831294878        3.7786078020
 H       -11.1852162445        2.8942630621        0.0308790711
 H       -12.2965205547        2.2033651626        1.0309098625
 H       -10.6021286904        1.9247924435        1.3567969325
 H       -10.8407981570       10.3948342325        3.5920411561
 H       -11.4322152518        9.0104765972        4.6979858916
 H       -12.4524076132       10.3363543123        4.1171708600
 H       -13.0352330331        8.9803895467        0.7583291149
 H       -12.9056503443       10.5338418783        1.6674605003
 H       -14.1625195932        9.3171087544        2.1895635105
 H        -5.0812199413        8.9589932674       -0.0489159792
 H        -5.4415678887       10.8174396495       -0.0423872133
 H        -4.9900860532       10.0509859298       -1.4239271508
 H        -8.0284322302       10.8141426041       -2.3249898387
 H        -7.3395415564       11.5467125074       -0.7357416010
 H        -8.9106312294       10.8060978707       -0.9146798385
 H       -10.4232745872        4.4859041425       -6.3080798576
 H        -8.7224210823        4.6879985600       -6.1348649010
 H        -9.8182147022        6.2102521106       -6.1931409704
 H       -12.2051678266        5.1507377324       -3.6048461875
 H       -12.0820720037        4.1167660712       -5.0464507348
 H       -11.7802559723        5.8370511046       -5.1320425099
 H        -7.1039163285        1.3052601981       -2.4775165065
 H        -6.3699334703        0.4070576897       -1.1009743114
 H        -7.9152236997        1.2499520505       -0.9625280501
 H        -7.6128184517       -2.5746702197       -2.1831958165
 H        -6.3212578457       -1.5461789456       -1.5432648105
 H        -6.8309331349       -1.5351818059       -3.3810438528
 H       -10.3002125304       -7.0895536113        2.1826120954
 H        -8.8517521693       -6.6569839421        1.3720611733
 H       -10.3420121599       -7.1490527518        0.6136973722
 H       -11.8009337233       -5.0930162405        3.2499576803
 H       -12.6071286835       -5.5801321914        1.9234623460
 H       -12.2099765115       -3.9217225825        2.0313314166
 Na      -10.7862739734        5.6919537654       -0.6692687357
