117

 C       -10.2834677249       -4.4924099028        4.3163759124
 C        -9.6685803612       -4.6672359345        2.8567102556
 O        -8.5485101751       -4.3750276581        2.5840144285
 C       -10.5445078520       -5.3022221611        1.6422136204
 C       -10.2683264338       -4.6273193097        0.3789924813
 O       -10.4943504303       -5.2567785155       -0.6643560190
 C        -9.4950796819       -3.2619362790        0.2262680140
 C       -10.0592060386       -2.3837082341       -0.8395824712
 C        -9.3913645891       -0.9983645532       -0.8271268154
 O        -9.9380096941       -0.3189233134        0.0567819760
 C        -8.4398623779       -0.4021955252       -1.8028348132
 C        -9.3495434274       -0.0542229065       -2.9894548874
 O        -9.5594791964       -0.8757677237       -3.8837026773
 C        -9.9899622349        1.2992513169       -2.9762783401
 C        -8.9484787577        2.3727262545       -3.3720270011
 C        -9.4096211992        3.7909681863       -3.0811755096
 O        -9.4554964109        4.1105673383       -1.9142552168
 C        -9.8037773548        4.8195899470       -4.2981071735
 C        -9.4823798987        6.1804488615       -3.7086255155
 O       -10.3027553085        6.9393420892       -3.1839652121
 C        -8.0202486499        6.6093417928       -3.8930177751
 C        -7.7276146264        8.0593967525       -3.2260165828
 C        -7.2971964676        7.9396405038       -1.7597719212
 O        -7.4602061230        6.8877642837       -1.1456612984
 C        -6.9460867914        9.2877034571       -1.1173155398
 C        -7.4653775768        9.2879053399        0.4145830639
 O        -7.0699532462       10.2012073541        1.0978087487
 C        -8.5305111364        8.2209775289        0.8714726850
 C        -9.5364112852        8.7219490619        1.9187362947
 C       -11.0592580964        8.6892610237        1.3860755339
 O       -11.3396280467        8.0595907556        0.3995716289
 C       -12.1046627748        9.1375570054        2.4208440062
 C       -12.4833594529        7.7665976057        3.0609437171
 O       -11.5873320096        7.2161754179        3.6608463083
 C       -13.8607465945        7.1282130212        2.9255959735
 C       -13.6313337071        5.5919273495        2.7614549342
 C       -12.5917565393        5.0414671292        1.7432752126
 O       -12.5762567327        5.5353055817        0.6077229940
 C       -11.4652163929        4.0066215420        2.2140446379
 C       -10.0957634988        4.8008893068        2.2335885201
 O        -9.6200229251        5.1128959432        1.1511131489
 C        -9.3983454743        5.0640553147        3.5585538864
 C       -11.7951247540        3.2343437068        3.4950846824
 C       -11.4026197277        2.9833886363        1.1663046619
 C       -11.6715665320       10.0229198416        3.5691431445
 C       -13.3306365535        9.8407103820        1.6508358582
 C        -5.4588023978        9.4824553972       -1.2898079840
 C        -7.6669877672       10.4603612206       -1.6795897344
 C        -9.0960382188        4.4453931504       -5.7191907840
 C       -11.3305886818        4.6820435022       -4.6026792943
 C        -7.7395740348        0.8192462013       -0.9865181750
 C        -7.2954035681       -1.4934307436       -2.3091183168
 C       -10.2819993556       -6.8489825842        1.7268642973
 C       -12.0939888497       -5.1143847674        2.1752864024
 H        -9.6836760600       -3.7462679441        4.8203339530
 H        -9.9429188504       -5.4672512013        4.9063074777
 H       -11.2944559251       -4.4903707194        4.5754315660
 H        -8.4464748891       -3.6995556728       -0.0019055357
 H        -9.4065981618       -2.6246493137        1.1627294579
 H       -11.1053568086       -1.9993700845       -0.5391579052
 H        -9.9533150137       -2.9678722108       -1.7769361898
 H       -10.4045985109        1.6147847136       -2.0130778246
 H       -10.8034168818        1.3464348640       -3.7757449598
 H        -8.7225688041        2.0754037531       -4.4231280013
 H        -8.0896215113        2.1712433169       -2.6921405024
 H        -7.8734573999        6.6901956840       -4.9885656689
 H        -7.4295296633        6.0343226138       -3.3911333807
 H        -8.6596317979        8.6163247974       -3.3676058153
 H        -7.0893121778        8.5307217092       -3.9239708683
 H        -7.8110290602        7.3920494414        1.2244944917
 H        -9.1715811862        7.7383495773        0.0931267919
 H        -9.2938981136        9.7219837561        2.3344765592
 H        -9.5336920137        8.1347674938        2.8268279967
 H       -14.4430979205        7.7633849674        2.1930509710
 H       -14.5469415778        7.1100097004        3.6970300241
 H       -14.5968408203        5.2954701254        2.3377103662
 H       -13.5723648262        5.1391248791        3.6774839863
 H        -9.2576403229        6.1732298600        3.7524861062
 H        -8.4896556734        4.5311978981        3.6259450286
 H       -10.0056736813        4.5601527112        4.4302503588
 H       -11.5122154300        3.8540832579        4.3167913161
 H       -11.3166684673        2.3744202370        3.5464838691
 H       -12.7578039745        2.8407487753        3.7890288628
 H       -11.3882057398        3.3564913660        0.1080026798
 H       -12.3003114152        2.4121516979        1.3019791546
 H       -10.5382541362        2.3980639810        1.2693717979
 H       -11.1404029724       10.8833615092        3.2678860678
 H       -11.0225897989        9.3690219470        4.2473788621
 H       -12.6149039053       10.3847688185        4.0608634727
 H       -13.8844658509        9.0168506234        1.2390852663
 H       -12.8416138544       10.4257275780        0.8588762471
 H       -13.8626468480       10.4292466830        2.4068630795
 H        -4.9619671287        8.7076783184       -0.6782511871
 H        -5.2259426699       10.4700256805       -0.9070867884
 H        -5.2280611682        9.4104808548       -2.3096638594
 H        -7.1918125278       10.7543139667       -2.6489502461
 H        -7.3416892939       11.2930857981       -1.0483284706
 H        -8.7886178079       10.2472142324       -1.6557371934
 H        -8.9977048950        3.3246736560       -5.7149300982
 H        -8.1277112774        4.9426293349       -5.7022568249
 H        -9.7183048029        4.6135059334       -6.6726313635
 H       -11.8929359365        4.8042098030       -3.6491797299
 H       -11.5435592143        3.6317325857       -5.0869250787
 H       -11.7668758905        5.5124632406       -5.1894517516
 H        -6.8538337377        1.0566213909       -1.5889648577
 H        -7.6424190566        0.3913353449        0.0326680517
 H        -8.4588312607        1.5968934944       -0.8541366066
 H        -6.8243012345       -1.2054420862       -3.1985745372
 H        -7.6741490526       -2.5506032004       -2.2850628910
 H        -6.4664647024       -1.3881089570       -1.7065879719
 H       -10.5522494127       -7.1897593440        2.6409163722
 H        -9.2280366292       -7.0034821927        1.7676350920
 H       -10.8341161520       -7.4952782789        1.0493844624
 H       -12.1957481213       -5.5920514384        3.1529824638
 H       -12.7849068861       -5.5635105702        1.5275637748
 H       -12.3793206995       -4.0285688974        2.4151253367
 Na      -11.0322938948        6.0006627647       -0.8773386921
