117

 C       -10.2833649401       -4.4503607332        4.3620358585
 C        -9.7657453834       -4.5689232325        2.9542714396
 O        -8.5358121647       -4.4963032169        2.6692848029
 C       -10.6749205786       -5.1885241734        1.9298362288
 C       -10.1915879250       -4.7798798920        0.3181310791
 O       -10.4495311344       -5.4698691707       -0.6772308311
 C        -9.6758103073       -3.3094886099        0.2601737309
 C       -10.1266964210       -2.5483514960       -0.9703483665
 C        -9.6914369123       -1.0643623777       -0.7458269254
 O        -9.9239894128       -0.2575616961        0.1709832982
 C        -8.5456627169       -0.4544114874       -1.7221149072
 C        -9.3445448342       -0.1057365078       -2.9353088669
 O        -9.5627789566       -0.8345750213       -3.8708259750
 C       -10.1302129609        1.3149977851       -2.8347349552
 C        -8.9510804341        2.3752750143       -3.2177044604
 C        -9.3914387273        3.8028836261       -3.0666191480
 O        -9.5922557311        4.3242724185       -1.9742433194
 C        -9.7612192498        4.6346002519       -4.2579330437
 C        -9.4196481764        6.1657308434       -3.8817734493
 O       -10.1866258204        6.7897089150       -3.2114987398
 C        -7.9335295304        6.6157234856       -4.0552850979
 C        -7.5677721616        8.0023296128       -3.3888754012
 C        -7.4485678071        7.9109313743       -1.8539837124
 O        -7.4971881423        6.8413919813       -1.2459705328
 C        -6.9754873931        9.2826495064       -1.1716262150
 C        -7.4211810986        9.2671371760        0.4022570810
 O        -7.0741993473       10.1709169528        1.0646771550
 C        -8.6033907564        8.2798680684        0.7836533752
 C        -9.5089484583        8.8279045675        1.8529751955
 C       -10.9572592012        8.5828967435        1.4934132870
 O       -11.3642527342        8.2505225842        0.3979888222
 C       -12.1843879801        9.1850920737        2.4852301153
 C       -12.4804257464        7.7903063347        3.1471588333
 O       -11.5468176511        7.1924379929        3.6568305849
 C       -13.8325212899        7.0990670575        2.9470368637
 C       -13.5993316725        5.6586076953        2.8505258064
 C       -12.4449590657        5.2528626675        1.7813761290
 O       -12.4286795142        5.5796380937        0.5948517924
 C       -11.4386319993        4.0398097927        2.1465020304
 C       -10.0062294654        4.7522840565        2.1866529045
 O        -9.4628143823        5.1639654135        1.1846010209
 C        -9.3336090161        5.0992214682        3.4450990580
 C       -11.8060031186        3.4324140241        3.5323160093
 C       -11.5802714183        2.8980742187        0.9808247831
 C       -11.7321031707       10.2400825035        3.4532019123
 C       -13.2559764776        9.8585709156        1.4395202773
 C        -5.4001425182        9.5163332374       -1.0689520630
 C        -7.6496262266       10.4119864062       -2.0708879240
 C        -8.9748240177        4.2421967186       -5.6009203877
 C       -11.3050409387        4.5478837042       -4.4724381741
 C        -7.7780014698        0.6018360467       -0.8375921425
 C        -7.3709811334       -1.4103717229       -2.1070608963
 C       -10.2753390145       -6.6502886670        1.8141370211
 C       -12.2792214365       -5.1839123582        2.0239911856
 H        -9.6666849921       -3.6479916617        4.7584581355
 H       -10.1598572526       -5.2813046562        5.0983360953
 H       -11.3174683268       -4.2479087796        4.4593860382
 H        -8.6193430403       -3.3951265344        0.4528834811
 H       -10.1087215358       -2.7345795792        1.1566602184
 H       -11.2566268123       -2.6229176978       -1.0275947332
 H        -9.5769914101       -2.9052486586       -1.7914667803
 H       -10.4989405027        1.6079779160       -1.8584390768
 H       -10.9248663916        1.4851030360       -3.5266821634
 H        -8.6471584586        2.0311588796       -4.2002913229
 H        -8.2296418358        2.2152230025       -2.4465288950
 H        -7.5641870954        6.5704434806       -5.0471248715
 H        -7.4678537970        5.8797820219       -3.3013370987
 H        -8.4042078740        8.5636186366       -3.7109541334
 H        -6.7817954305        8.4281129311       -3.9435330777
 H        -8.1144362794        7.3464285347        0.9747246131
 H        -9.2801795784        8.0642166467       -0.0392829204
 H        -9.4931336697        9.8914142076        2.0133379984
 H        -9.2747360798        8.4679098215        2.8644466180
 H       -14.3892203861        7.6455100912        2.1639830414
 H       -14.6040109774        7.2708077805        3.8085990226
 H       -14.4929350727        5.2395185574        2.3220858921
 H       -13.5206512193        5.1770152446        3.7895696025
 H        -9.5439760526        6.1602001661        3.6740134303
 H        -8.2585358532        4.8287148159        3.4886976137
 H        -9.7534472850        4.4563971324        4.2128544695
 H       -11.6770320183        4.0803732186        4.3038769589
 H       -11.2109359220        2.5544766948        3.8699210059
 H       -12.7808548829        2.9252915370        3.6421242859
 H       -11.1687023829        3.2989198956        0.0999163774
 H       -12.5517423310        2.4872458908        0.7826082747
 H       -10.9242493406        2.1426484086        1.2426242102
 H       -11.0807160278       11.0397428403        3.0497452555
 H       -11.1147463162        9.6487255168        4.1955354278
 H       -12.6418071473       10.6720713097        3.9151218197
 H       -13.4900862628        9.0502203993        0.7252325029
 H       -12.6094968257       10.6076123670        0.9621972008
 H       -14.0729822907       10.2623274875        2.0247610015
 H        -4.9717511739        8.9638440354       -0.2913984654
 H        -5.2916450090       10.5167090957       -0.7247096710
 H        -4.9320232171        9.3475615808       -2.0896243965
 H        -7.3590697622       10.3358307072       -3.0531913320
 H        -7.1321324611       11.2805468927       -1.7857112035
 H        -8.7202570548       10.4693767771       -1.8017487821
 H        -8.9136707634        3.1317852567       -5.5834670615
 H        -7.9870645877        4.7671628229       -5.5422985039
 H        -9.5293966286        4.3793810381       -6.5306241826
 H       -11.6945049842        4.6066562802       -3.4235315359
 H       -11.6769980156        3.7732214822       -4.9808292191
 H       -11.7035663084        5.5330485868       -4.7959979802
 H        -7.0721560288        0.9550150793       -1.4872374339
 H        -7.4427780044        0.1040854223       -0.0057415163
 H        -8.5243317184        1.3511831439       -0.4792103224
 H        -6.5477122013       -0.7933206930       -2.5192838346
 H        -7.7074431150       -2.1841265828       -2.7837161215
 H        -6.8197781999       -1.8845968498       -1.2576803939
 H       -10.5817595352       -7.4126221643        2.4834280272
 H        -9.2975739079       -6.7477741222        1.7800574212
 H       -10.7449309646       -6.9328181071        0.9020983061
 H       -12.7081337458       -5.4429892625        2.9652011731
 H       -12.4882795432       -5.9381488109        1.3081600859
 H       -12.8153457790       -4.3129733715        1.7851832509
 Na      -10.9343979020        6.0308023629       -0.8516059014
