117

 C       -10.9231103833       -4.1629599382        4.4924294486
 C       -10.3572354728       -4.9743216170        3.3126831094
 O        -9.1513205389       -4.9742160019        3.2767640347
 C       -11.0164293151       -5.7042073368        2.1330211085
 C       -10.5921296295       -5.1184547417        0.8195471077
 O       -10.0009394320       -5.8183164673       -0.0181163038
 C       -10.4075250104       -3.6218178047        0.7826644711
 C       -10.6343181180       -2.9330106062       -0.6779260296
 C       -10.1993914511       -1.4649780110       -0.4595649488
 O       -11.0578161593       -0.6073901855       -0.2384669115
 C        -8.6892373093       -1.1153984325       -0.9630579629
 C        -9.0419466403       -0.1281600795       -2.1734963609
 O        -8.8062604714       -0.5428794717       -3.2824738826
 C        -9.7296659333        1.4443370494       -1.9927188043
 C        -8.9726515846        2.5101375105       -2.7454695614
 C        -9.6824724213        3.8927476285       -2.7675027369
 O       -10.1700980793        4.3091905134       -1.7511932819
 C        -9.6678149122        4.8128973578       -4.1543241797
 C        -9.1016588980        6.2322508509       -3.8988292893
 O        -9.5908188205        7.1081820339       -3.1898866824
 C        -7.7579791056        6.6075733771       -4.5371997808
 C        -7.2672888327        8.0570469263       -3.8942679385
 C        -7.1566133453        7.9023565799       -2.3151968456
 O        -7.5202470473        6.8850806997       -1.7625993805
 C        -6.7715200572        9.1353768381       -1.6710264909
 C        -7.5467305041        9.5011799750       -0.2587240215
 O        -7.0614795249       10.3324226942        0.4227844288
 C        -8.8703633001        8.6812596080       -0.0264621499
 C        -9.6822010189        9.2692892342        1.1534094536
 C       -11.1062885917        8.9077887638        0.9464745824
 O       -11.4269053233        8.5556401526       -0.1644421185
 C       -12.1595705030        9.5042056104        2.0447052639
 C       -12.6125330599        8.3569237702        2.9502044923
 O       -11.8870445482        8.1409300154        3.8669934437
 C       -13.7200772244        7.3061617175        2.5280317044
 C       -13.2045329612        5.8709013218        2.8747121145
 C       -12.1767064213        5.4296509800        1.7778635916
 O       -12.1275788032        5.9681018120        0.6867841852
 C       -11.1879339473        4.0989553025        2.0276178014
 C        -9.8249324766        4.8066150646        2.0768668226
 O        -9.3551690209        5.4759294591        1.1301559996
 C        -8.8943702072        4.5645706690        3.3086800539
 C       -11.3936740043        3.3400105078        3.3793219299
 C       -11.1908279720        3.0523503710        0.7873319541
 C       -11.4500575478       10.5192099676        2.8633933863
 C       -13.3364299854       10.2658781649        1.2934388041
 C        -5.1968312651        8.8791979082       -1.3647113618
 C        -6.8691367723       10.4587653050       -2.4756918932
 C        -8.9409639071        4.1641782452       -5.3696127066
 C       -11.2100830722        4.9438395637       -4.4957721769
 C        -7.9209632330       -0.3208369862        0.0364492208
 C        -7.8931295017       -2.3945170541       -1.4201458053
 C       -10.5032663009       -7.1510465541        2.2138630383
 C       -12.6439195379       -5.7646672478        2.1703883981
 H       -10.1860036872       -4.2436894610        5.3110829432
 H       -11.9056326186       -4.5095169892        5.0281339008
 H       -10.9232808978       -3.1386490620        4.3930994788
 H        -9.3626014786       -3.3668834540        0.9223641397
 H       -10.9447599010       -3.1464302994        1.5414115965
 H       -11.7364524294       -2.8731706402       -0.7316324715
 H       -10.3403069703       -3.3507335453       -1.5945103205
 H        -9.8648725264        1.8141221174       -1.0315336422
 H       -10.6915108747        1.4018416308       -2.4994989346
 H        -8.7930045982        2.0952424518       -3.7070990123
 H        -8.0768782472        2.5774444221       -2.1653008088
 H        -7.7984757924        6.3029703159       -5.7359096610
 H        -7.0138229551        5.9525136595       -4.1356497247
 H        -8.0470624768        8.8260831731       -4.2207271187
 H        -6.3279127880        8.3378497136       -4.4367286929
 H        -8.5567883433        7.6719461438        0.1702653448
 H        -9.4874645021        8.6356048136       -0.8699225613
 H        -9.4393822908       10.3499231931        1.1385533733
 H        -9.2559186034        8.9604973956        2.0877792278
 H       -13.9676603586        7.5420612313        1.4315125720
 H       -14.5924267447        7.4796787642        3.0371842845
 H       -14.1923240622        5.2330999189        2.8656047508
 H       -12.7163322932        5.8766511543        3.8298683907
 H        -9.4508695186        4.4048285125        4.2192643496
 H        -8.3961327130        5.4237469537        3.5284613584
 H        -8.0702200617        3.8446994893        3.1162905875
 H       -11.1748439824        3.8409155028        4.3438178299
 H       -10.7717765742        2.4390205316        3.4807876724
 H       -12.5609600223        3.0017792912        3.6210111524
 H       -11.6580812785        3.4314612263       -0.1942034244
 H       -11.8742983641        2.1463180203        1.0956555347
 H       -10.3030050772        2.5992544753        0.6158273840
 H       -10.9512712010       11.1345218748        2.2139210580
 H       -10.6983918554       10.0076434850        3.5444021666
 H       -12.1786619848       11.0043252350        3.5472665310
 H       -13.6969656847        9.4750673429        0.6720846658
 H       -12.8606568429       11.0768904407        0.7270131272
 H       -14.0089058995       10.7101860715        2.0622527937
 H        -5.1016126668        7.9556617710       -0.7068441081
 H        -4.7452211429        9.7723324607       -0.8475397968
 H        -4.6709046480        8.6598111244       -2.2704960849
 H        -6.7708786269       10.1640487867       -3.4472814197
 H        -6.0365689645       10.9615734011       -2.1273995470
 H        -7.8187539163       10.9921586120       -2.3451572178
 H        -9.1978885506        3.1145001435       -5.3526123979
 H        -7.8775953112        4.1816132368       -5.2851720070
 H        -9.2279677248        4.6100543983       -6.3462402026
 H       -11.9004415279        5.2721504203       -3.7599817178
 H       -11.4607778056        3.9441041506       -4.7088446418
 H       -11.2659702119        5.4751916582       -5.4080939597
 H        -7.2510336108        0.3948144515       -0.3497320623
 H        -7.3184251952       -1.0364482208        0.5300792040
 H        -8.6772241183        0.1382024177        0.6375496912
 H        -7.1511432693       -2.0622480254       -2.1813545141
 H        -8.3586656774       -3.2280493870       -2.1136737120
 H        -7.5534312496       -2.9651894772       -0.5596439220
 H       -10.6387569031       -7.6958255889        3.2320549270
 H        -9.4548467546       -7.0121523917        2.1316150546
 H       -10.5832708984       -7.8414039266        1.2856824761
 H       -13.0915433770       -5.9975801498        3.0836312338
 H       -13.1244759166       -6.3800493600        1.5003245769
 H       -12.9784765701       -4.8131782161        1.7624034931
 Na      -10.4749046315        6.4718064603       -0.9194585228
