117

 C       -11.1532882914       -4.2869543949        4.4902294076
 C       -10.2725573880       -5.0341376855        3.4914600470
 O        -9.0614510587       -5.1275191331        3.4821368308
 C       -11.1119098628       -5.8098501402        2.2200753858
 C       -10.5697237826       -5.1830063484        0.9066716391
 O       -10.0971820593       -5.7836925572        0.0013533506
 C       -10.4963172628       -3.5711575292        0.9669227445
 C       -10.7824784217       -2.9989970256       -0.5146040088
 C       -10.4566569325       -1.5667750073       -0.5856886001
 O       -11.1989713824       -0.6356368838       -0.2467786466
 C        -8.8571651721       -1.1324710655       -0.9166919778
 C        -8.9510089117       -0.1453322708       -2.1762135141
 O        -8.5180934410       -0.2861833069       -3.2759566925
 C        -9.5823450796        1.2216035564       -1.8463407786
 C        -8.9646066079        2.4436054539       -2.7330155634
 C        -9.6192940639        3.8728334143       -2.8095151053
 O       -10.1361969643        4.3189650386       -1.8135992847
 C        -9.7169041371        4.7571852025       -4.1266874531
 C        -9.1432061500        6.2523565349       -3.8983184628
 O        -9.7745291738        7.0796312970       -3.2442162493
 C        -7.7496678560        6.5952998053       -4.5793971416
 C        -7.2199173777        7.9135977356       -3.9583016843
 C        -7.1671176437        7.9153366188       -2.5035047838
 O        -7.3512092915        6.8867094087       -1.8415277022
 C        -6.6534117767        9.2534124093       -1.7344136444
 C        -7.4125489390        9.5296862557       -0.4726963593
 O        -7.0848018012       10.3042259670        0.4091709651
 C        -8.8035770388        8.9379124321       -0.2576112926
 C        -9.5752784122        9.3503659651        1.0039849760
 C       -11.0623703285        9.1676027144        0.7628670747
 O       -11.5397072875        8.5115441215       -0.1723931595
 C       -11.9869091106        9.6581672004        1.9312288348
 C       -12.3891367866        8.4303430659        2.8277617124
 O       -11.9858866225        8.2123968847        3.9592040041
 C       -13.5279481811        7.4134901486        2.3454242555
 C       -13.1374227020        6.0108902195        2.7928223991
 C       -12.1722489785        5.3760642523        1.8098386732
 O       -12.1136852845        5.8881780601        0.7013079665
 C       -11.1288286367        4.1703727989        2.0341230705
 C        -9.6828204943        4.7967522410        2.0883464947
 O        -9.2976694326        5.4962134684        1.1937800778
 C        -8.7767959612        4.4613356145        3.2183839548
 C       -11.4836931019        3.3447831843        3.2760550627
 C       -11.0228995838        3.2049216853        0.8707854030
 C       -11.4298189285       10.7273947444        2.8877280513
 C       -13.3566339655       10.1649653072        1.1220137460
 C        -5.2656490662        8.8761734577       -1.0739158824
 C        -6.7078767506       10.6672384039       -2.4294755462
 C        -9.0465367259        4.0442625197       -5.2886713556
 C       -11.2475820348        4.9753715564       -4.5223658086
 C        -7.9971397739       -0.4291473564        0.2380587520
 C        -8.0266185235       -2.3670901370       -1.3874267373
 C       -10.5933012461       -7.2614549594        2.3792570747
 C       -12.7463319680       -5.8491988430        2.1695200085
 H       -10.8262233211       -4.3200371290        5.5620703779
 H       -12.0839247714       -4.8133803608        4.5315960878
 H       -11.2038999313       -3.1980291773        4.4079253677
 H        -9.4957183037       -3.2766886362        0.9579323740
 H       -10.9982073633       -3.1009284962        1.7884303278
 H       -11.9276359567       -3.1070586888       -0.6848716288
 H       -10.3704176350       -3.5621833874       -1.3221776563
 H        -9.4537105683        1.5615001422       -0.7906331088
 H       -10.6543954087        1.1180057203       -2.0864168339
 H        -8.8071733556        1.9836356891       -3.7395331099
 H        -7.9773436448        2.5007024409       -2.2341501106
 H        -7.8902856426        6.7111591007       -5.6387344936
 H        -6.9878386728        5.8070553956       -4.4991840809
 H        -7.9482113071        8.6895145338       -4.3582831840
 H        -6.2420454715        8.1657755737       -4.4395333446
 H        -8.6985782927        7.8364754077       -0.2689078667
 H        -9.4904461160        9.1458287763       -1.0198439312
 H        -9.2489076940       10.4007788811        1.1571280584
 H        -9.2139168279        8.8513772470        1.9088815034
 H       -13.7093991902        7.5134016935        1.3321869405
 H       -14.4635485320        7.5930546640        2.8722033082
 H       -14.1236861535        5.5333230740        2.7245636062
 H       -12.7587273996        5.9903022825        3.7807337931
 H        -9.3769896192        4.4150280501        4.0860449033
 H        -7.9985500688        5.2213450039        3.4502315590
 H        -8.2846860278        3.5460992725        3.0406279984
 H       -11.3733484238        3.8197058995        4.2567815801
 H       -10.7044849011        2.5338574608        3.3073469345
 H       -12.4144154685        2.9044600846        3.4110999284
 H       -11.1164657251        3.6176617361       -0.0979367306
 H       -11.8042169470        2.3964286212        0.9687537157
 H       -10.0575445887        2.5248753377        0.9383722535
 H       -11.0623281904       11.5725710115        2.2909010777
 H       -10.6490958208       10.2963960655        3.5086289266
 H       -12.2059120023       11.0090832268        3.5644948278
 H       -13.7643607406        9.3190012416        0.5997970555
 H       -13.0472698043       11.0054352924        0.5035685040
 H       -13.9748635651       10.5519299131        1.9250783583
 H        -5.4531539009        8.0692312097       -0.3394196273
 H        -4.8423401422        9.7705624682       -0.6007075967
 H        -4.4736685726        8.4717998817       -1.8360683493
 H        -6.3847093227       10.3116901010       -3.3944081587
 H        -6.0364390549       11.3714175987       -1.8739036752
 H        -7.7693046755       10.9446266032       -2.6080123973
 H        -9.6279920213        3.2643719191       -5.7000948626
 H        -8.1186793342        3.4944429692       -5.0390298650
 H        -8.8231579740        4.7452726141       -5.9968302652
 H       -11.9006453926        4.9062711718       -3.6300376621
 H       -11.5081031630        4.1531197073       -5.0813520065
 H       -11.4023313572        5.8871368842       -5.1576048791
 H        -7.2182175574        0.0614173198       -0.3151445913
 H        -7.4812658202       -1.1689146845        0.8001319768
 H        -8.5913641906        0.3782166514        0.8054990343
 H        -7.2711906069       -1.9804521314       -2.0938999527
 H        -8.4282093610       -3.0426621169       -2.0789865608
 H        -7.7148239312       -3.0114631414       -0.5274496239
 H       -10.9241566237       -7.8829705231        3.3124550168
 H        -9.4471617961       -7.1279603313        2.4958711966
 H       -10.5194229727       -7.8492339738        1.4441898536
 H       -13.3146938607       -6.2370231049        3.0126339014
 H       -13.0546795250       -6.5614286070        1.4051222339
 H       -13.1749374085       -4.9913282873        1.7175525081
 Na      -10.6778257953        6.3626919445       -0.9260824537
