117

 C       -11.7836442083       -4.7698934471        4.8750920923
 C       -10.7943507249       -5.3111437746        3.9073711507
 O        -9.6059249139       -5.5727479044        4.1144835585
 C       -11.2581644932       -5.8511626091        2.5451331451
 C       -10.6783648147       -5.0117055924        1.0960345739
 O       -10.4283745827       -5.7955415711        0.2398367438
 C       -10.5282272570       -3.4557016876        1.0389339929
 C       -11.1112807387       -2.9028467723       -0.2459578002
 C       -10.7176682138       -1.5477542498       -0.6380171066
 O       -11.6043410601       -0.7260419510       -0.6633524439
 C        -9.1370909271       -1.2229929725       -0.7536253490
 C        -8.6496572646        0.0648934692       -1.7005478998
 O        -7.7565846688       -0.1492190268       -2.5047571406
 C        -9.2790860880        1.4339545814       -1.6969588113
 C        -9.3053167855        2.1644113277       -3.0152477877
 C        -9.6468696615        3.6895527397       -2.9092255567
 O        -9.8679152253        4.2017024333       -1.8129938079
 C        -9.7761732889        4.6369171927       -4.2435243219
 C        -9.1430525164        6.0761655283       -3.7724517020
 O        -9.6983667043        6.7719394167       -2.9021320433
 C        -7.8836518650        6.6155042465       -4.3901964110
 C        -7.6342429081        7.9496353461       -3.8590789864
 C        -6.8072556772        7.9150259805       -2.5097652059
 O        -6.6347558940        6.8701616271       -1.8792145144
 C        -6.2539174626        9.2260985721       -1.7752286628
 C        -7.2729359039        9.7652664275       -0.8491971773
 O        -6.8341812556       10.3530704511        0.1460119257
 C        -8.7087351946        9.4093064495       -0.9990869819
 C        -9.5546294713        9.7984445416        0.2989497866
 C       -11.1639461549        9.3339169033        0.4622738746
 O       -11.6959711209        8.3295044198        0.0111717768
 C       -12.1323429662       10.0054004714        1.5776238330
 C       -12.3755634985        8.7807507861        2.5325637094
 O       -11.7023395412        8.7771437490        3.5579910848
 C       -13.3030306697        7.4870151146        2.2571392900
 C       -12.6152482575        6.2000706800        2.6477526865
 C       -12.1327329361        5.2534207539        1.5035762889
 O       -12.5238352753        5.3018307422        0.3444029914
 C       -11.0996482633        4.2051516062        2.1377706458
 C        -9.7091853904        4.9809576382        2.0297139311
 O        -9.5396681210        5.9374741211        1.3269060774
 C        -8.6415622751        4.4568038664        2.7585907235
 C       -11.2797886546        3.8547663081        3.6506190190
 C       -11.0566470156        2.8323888706        1.3569367366
 C       -11.3910926851       11.2005621334        2.3696186193
 C       -13.5020114950       10.4143451269        1.0686235354
 C        -4.9377709912        8.8521751126       -1.0861579494
 C        -5.9408042228       10.2674697063       -2.9058015181
 C        -9.0525847868        4.2334359638       -5.5408241001
 C       -11.3171394346        4.5344778834       -4.4729852498
 C        -8.3906219629       -0.8936996746        0.6572425423
 C        -8.3552046671       -2.4349651050       -1.3434758320
 C       -10.5772235437       -7.2182693802        2.3463620460
 C       -12.6648581968       -6.0754557584        2.4097574564
 H       -11.3405145624       -4.0710373183        5.6167880474
 H       -12.1157398792       -5.6310026801        5.3309526775
 H       -12.6148136021       -4.0807753674        4.4708400398
 H        -9.5149218256       -3.5285730130        1.2267324344
 H       -10.9869293494       -3.0070812640        1.9076669139
 H       -12.1914331957       -3.0719630927       -0.1169023984
 H       -10.9569169912       -3.6686614055       -0.9572443276
 H        -8.5811716992        2.0231922742       -1.1054064362
 H       -10.2465312968        1.4183739758       -1.2777645958
 H        -9.9688379489        1.6446604870       -3.6925295121
 H        -8.3668272910        2.0266285741       -3.5061756639
 H        -7.9182536134        6.6191743520       -5.3885249309
 H        -7.0047960709        5.8853552470       -4.3490393380
 H        -8.5896629371        8.5216563947       -3.5853440154
 H        -7.1548278859        8.5764875584       -4.7043601422
 H        -8.7543924981        8.3241085477       -0.9640423936
 H        -9.2332020555        9.6576383463       -1.8456657491
 H        -9.4717212497       10.8821359859        0.3780407393
 H        -9.0724524439        9.3725409742        1.1802591156
 H       -13.4725665364        7.4291284695        1.2681114309
 H       -14.2025355236        7.7231006967        2.8689151269
 H       -13.2382313418        5.4791203928        3.1811777503
 H       -11.7313507593        6.4663103199        3.2943516710
 H        -8.2241547660        5.2268547080        3.3606447650
 H        -7.7834021973        4.2404044238        2.0448264388
 H        -8.9093719849        3.6401866975        3.3180947701
 H       -10.8680622621        4.7419355541        4.2870745457
 H       -10.8009776779        2.8228422708        3.8282125424
 H       -12.2490426811        3.7947772397        4.0044740957
 H       -10.1809049097        2.5209231765        0.7392555093
 H       -11.8907473403        2.8870119966        0.6666748510
 H       -11.2002529861        1.9114707866        2.0833605990
 H       -11.0203974866       11.9204989783        1.5395284901
 H       -10.6214630928       10.7661730821        2.9573457176
 H       -11.9560408594       11.8883273598        2.9693374714
 H       -13.8069563456        9.6345685166        0.3500625743
 H       -13.2880877654       11.3789320057        0.6044023893
 H       -14.1423488774       10.4856500706        1.9460708488
 H        -5.1350183640        7.9349100506       -0.5919914436
 H        -4.7623835549        9.6869241999       -0.4421754775
 H        -3.9488173064        8.8782520667       -1.6411467765
 H        -5.2954280402        9.6922871375       -3.5124634480
 H        -5.5690257511       11.1776724449       -2.5088218275
 H        -6.7544393357       10.3974434539       -3.5109493728
 H        -8.9727471118        3.1894498421       -5.7821793416
 H        -7.9579197555        4.4763086012       -5.6170889332
 H        -9.5503237238        4.7676776001       -6.2994682190
 H       -11.6983305297        5.3379705394       -3.9726404177
 H       -11.7287619760        3.7180358942       -3.8560150840
 H       -11.6134451570        4.4130796791       -5.4548899522
 H        -7.3945433813       -0.6618583135        0.4228757800
 H        -8.5511146350       -1.7220746283        1.2637810751
 H        -8.8131846655        0.0282309089        1.1019113011
 H        -7.2320069708       -2.4741738798       -1.5479542959
 H        -8.6965702769       -2.8023091570       -2.3047453663
 H        -8.4629183196       -3.4030207236       -0.7101619745
 H       -10.8017794958       -7.7797107439        3.2492879296
 H        -9.3976867344       -7.2916264564        2.4725745175
 H       -10.7067024201       -7.6591777795        1.3451820722
 H       -13.0027946962       -6.8030389795        3.1157597065
 H       -12.9247737889       -6.5903806276        1.4829296875
 H       -13.2814428657       -5.2342427483        2.4838074731
 Na      -10.5929331575        6.2372259022       -0.8181766509
