117

 C       -11.8674161661       -4.8944738218        4.9784585186
 C       -10.8659496692       -5.3578423872        3.9352283159
 O        -9.7477896912       -5.5536751044        4.3102584542
 C       -11.3221674510       -5.9421611010        2.4116580997
 C       -10.7401257094       -5.0459373651        1.2410081101
 O       -10.4834735416       -5.5347479692        0.1411037404
 C       -10.6026534832       -3.5016800169        1.1204850508
 C       -11.1799130273       -2.9585949807       -0.2087455574
 C       -10.7191759680       -1.4500308750       -0.5406710703
 O       -11.4557968092       -0.5998864110       -0.9171517494
 C        -9.0938513254       -1.2687410805       -0.6373869486
 C        -8.6948680696       -0.0315587069       -1.7066902508
 O        -7.6219405934       -0.1477583424       -2.2705220324
 C        -9.4268841178        1.3937035657       -1.6081170549
 C        -9.4054073388        2.1840192886       -3.0092951924
 C        -9.5304873197        3.6741835019       -2.8835708463
 O        -9.7355972838        4.1286435632       -1.7679613376
 C        -9.6844171491        4.5798775468       -4.1581497146
 C        -9.2374842390        5.9691046964       -3.7173582614
 O        -9.9025170328        6.5082686667       -2.8708431784
 C        -7.9897421734        6.6059678904       -4.3884148951
 C        -7.5298925630        7.9842586369       -3.7957807585
 C        -6.7407320991        7.8388833788       -2.4456422557
 O        -6.5075620469        6.6965737488       -2.0850968941
 C        -6.1058349420        9.1083182348       -1.8972045611
 C        -7.2690132980        9.8075761949       -0.7466441149
 O        -6.8400219575       10.5253772109        0.1093718496
 C        -8.7739475745        9.4731390315       -1.0147140401
 C        -9.7113789995        9.9296481131        0.0606173537
 C       -11.0838942789        9.3459936664        0.3976705988
 O       -11.4717579046        8.3453772342       -0.2203015754
 C       -12.0222673400       10.0196136488        1.3704590181
 C       -12.2023627209        8.8106069138        2.4753262639
 O       -11.6330129553        8.7908926243        3.5089029319
 C       -13.1381664433        7.6236253524        2.1346313704
 C       -12.5989981601        6.2885095685        2.6581529251
 C       -12.2214939893        5.1911894160        1.7130748855
 O       -12.5501269012        5.2012447552        0.5326967990
 C       -11.1549368784        4.2741512752        2.1392170220
 C        -9.6899444833        4.9765098927        1.8309116061
 O        -9.7368885001        6.0018100822        1.2222587091
 C        -8.3978649820        4.4651211775        2.6465719289
 C       -11.2740827277        4.0676514417        3.7234947384
 C       -11.1253303009        2.8485049751        1.4323449925
 C       -11.4456932454       11.2104165089        2.2064522356
 C       -13.4168812359       10.4916717695        0.8288528726
 C        -4.9606907625        8.7649919613       -1.0147327680
 C        -5.9609594995       10.3047558232       -3.0777590657
 C        -8.9864238469        4.1282374338       -5.3957648909
 C       -11.2899861423        4.7326137003       -4.4097599091
 C        -8.3434403084       -0.8452284021        0.6104322078
 C        -8.4391962626       -2.5646962300       -1.1652244988
 C       -10.5207522383       -7.2580289890        2.4322849396
 C       -12.9404264785       -6.1531480741        2.4085042098
 H       -11.4617771641       -4.0188862742        5.4069928762
 H       -11.9738383503       -5.7069546089        5.7259322921
 H       -12.8452771678       -4.4702201497        4.6221017763
 H        -9.5256023150       -3.6118758704        1.1845761304
 H       -10.9145292186       -2.8533563939        1.9154663501
 H       -12.2004951018       -3.2432738316       -0.2783082607
 H       -10.7448798652       -3.7107458304       -0.9996274066
 H        -8.6536230097        1.9177673428       -0.9769979365
 H       -10.4237413654        1.3343088462       -1.1383580493
 H       -10.3056814892        1.9004351674       -3.6116945822
 H        -8.6142758347        1.7395981254       -3.6680413841
 H        -8.0061678991        6.5345754533       -5.4572534547
 H        -7.2506330993        5.8260844121       -4.3557654701
 H        -8.3393351343        8.6734756256       -3.5675636815
 H        -6.8856428670        8.5304280192       -4.5575805227
 H        -8.9577100742        8.4638506834       -1.2772527480
 H        -9.1259874017       10.0351678879       -1.8983667105
 H        -9.8376238279       10.9607568902       -0.1964518656
 H        -9.1863154027        9.9174912435        1.0395420713
 H       -13.2281229969        7.5602031805        1.0639574530
 H       -14.0345615746        7.9100024522        2.6680832080
 H       -13.1867569975        5.8565694798        3.3475449783
 H       -11.6170837845        6.5434611234        3.1198106725
 H        -7.8575552944        5.1746615829        3.2323978859
 H        -7.7292386945        4.2503083822        1.8727494310
 H        -8.5887484144        3.5606258265        3.2610112516
 H       -10.7041478985        4.7129784158        4.3530712891
 H       -11.1934430053        3.0804457284        3.8959632321
 H       -12.3713574962        4.2819112906        3.9733643419
 H       -10.0701639612        2.4332987481        1.0698470301
 H       -11.7673821018        2.8803069013        0.5162883899
 H       -11.3959055740        2.1345914571        2.0652707734
 H       -11.0050216088       11.9669053039        1.5342597247
 H       -10.7598098934       10.7576166435        2.8736518726
 H       -12.1334703297       11.8486309501        2.7327155964
 H       -13.8743946558        9.6149405130        0.3446965760
 H       -13.1828939147       11.2852259584        0.1519093606
 H       -13.9100746379       10.7978852678        1.7526967429
 H        -5.3646736535        8.0520394625       -0.2441363579
 H        -4.5293825652        9.7432092922       -0.6697625440
 H        -4.0902413937        8.3711471395       -1.5148785231
 H        -5.8314769165        9.9384372023       -4.1294297748
 H        -5.2052463669       11.0277535804       -2.7439275196
 H        -6.9335978321       10.8198277545       -3.0323753259
 H        -9.4650927883        3.2518618358       -5.8260007604
 H        -7.9636123009        3.9386633228       -5.4158039884
 H        -9.2492985961        4.8905801923       -6.1339065940
 H       -11.6452300261        5.6605279812       -3.9766027311
 H       -11.7583532675        3.9066597756       -3.7727876526
 H       -11.5644522699        4.5847997916       -5.4333409359
 H        -7.4537477771       -0.2871394397        0.2726431699
 H        -8.2531114320       -1.7211683743        1.3168146808
 H        -8.9338967032       -0.1378831171        1.0944268887
 H        -7.5381147501       -2.5979023282       -1.7146900090
 H        -9.1635520573       -3.1456838824       -1.8394772832
 H        -8.1785312477       -3.2973610685       -0.4693338257
 H       -10.3858647240       -7.6460700000        3.4653467314
 H        -9.4795832879       -7.0495717794        2.2884483540
 H       -10.6222245789       -7.9848840122        1.5089403040
 H       -13.3312241220       -6.5855067168        3.3196913492
 H       -13.4413676323       -6.7471860457        1.6292861150
 H       -13.3593426776       -5.1569537227        2.4504892598
 Na      -10.5884239186        6.1445120535       -0.6373058595
