117

 C       -12.2114257810       -4.9593684233        4.8714749074
 C       -11.0113531696       -5.3884813925        3.9449668420
 O        -9.8627692551       -5.2711212917        4.3662723308
 C       -11.3077097620       -5.9421604082        2.5116914682
 C       -10.9050823637       -5.0094078915        1.4135034038
 O       -10.8347311659       -5.5112291629        0.3222375947
 C       -11.0588979178       -3.5080226637        1.5947732356
 C       -11.4490568825       -2.6754958556        0.2667816545
 C       -10.5879091548       -1.4680502845       -0.4408461454
 O       -11.3668997136       -0.7872055989       -1.0981190722
 C        -8.9538104601       -1.2489896644       -0.6170767400
 C        -8.5627624384       -0.1021235665       -1.6125741591
 O        -7.5447968582        0.0026098954       -2.2585310886
 C        -9.5316762465        1.1651401610       -1.6138959966
 C        -9.4833107353        1.9979450045       -2.8927251572
 C        -9.6150867629        3.4674522358       -2.6603532185
 O        -9.4906969056        3.8711444699       -1.5126251617
 C        -9.8673274275        4.3684492767       -3.8783698889
 C        -9.2359971501        5.9340342028       -3.5561982559
 O        -9.8194031507        6.6516989824       -2.7108862371
 C        -8.1128173928        6.5468830694       -4.3945894894
 C        -7.6357133735        7.8354338707       -3.9119428414
 C        -6.7314415930        7.7543320434       -2.5995903446
 O        -6.2166418875        6.6837329035       -2.2633117483
 C        -6.2383808419        9.1073628517       -1.8304964097
 C        -7.3204355239        9.7994052585       -0.9314246896
 O        -6.9667157276       10.6473387500       -0.0861810311
 C        -8.7608592758        9.4570284658       -1.2479191880
 C        -9.6032061323       10.3874986926       -0.2957839787
 C       -10.7949214810        9.5796674390        0.1393452173
 O       -11.0531967877        8.6037368677       -0.5389487664
 C       -11.8335308810       10.0567402648        1.1194483988
 C       -12.0533283849        8.8990764129        2.1493382480
 O       -11.4560224235        8.9748109237        3.2154354942
 C       -12.9047919794        7.6804213314        1.7872042872
 C       -12.7971186084        6.4239972328        2.7731863241
 C       -12.1909986801        5.3034428144        1.9312194161
 O       -12.6419973544        5.1795458172        0.8099946919
 C       -11.0521811919        4.3942913225        2.4487724375
 C        -9.6245908360        5.0603078367        2.0386442460
 O        -9.6735129850        6.0346544964        1.3195139509
 C        -8.2667818277        4.3128431779        2.2575105912
 C       -11.0353392883        4.0672152011        3.9276600859
 C       -11.2158875482        3.1336555363        1.6522762417
 C       -11.3159875245       11.3156947301        1.8278428067
 C       -13.1469214841       10.2888242361        0.2653548326
 C        -4.9434009202        8.7145805153       -0.9794510587
 C        -5.8952809415       10.2375508363       -2.8134150681
 C        -9.0768222353        3.7572762570       -4.9258594980
 C       -11.3444309641        4.5491417160       -4.3742779551
 C        -8.5487124106       -0.7521009640        0.8873747445
 C        -8.2011362629       -2.5557163542       -1.1380627505
 C       -10.7327082512       -7.3699142866        2.2497467516
 C       -12.8132428308       -6.1687570683        2.2593948649
 H       -12.4290708868       -3.9173368121        5.2640877224
 H       -12.1548930619       -5.6540663186        5.6372452789
 H       -13.1266861603       -5.3164793324        4.3521185546
 H       -10.2884367577       -2.8513030889        2.1389998242
 H       -11.9815865467       -3.4285044016        2.2841301789
 H       -12.5699816750       -2.3289662283        0.3118449832
 H       -11.4565395305       -3.4089975278       -0.4918619884
 H        -9.0722134087        1.8122705587       -0.8275754938
 H       -10.5630089079        0.8716151421       -1.3760127374
 H       -10.0173534624        1.5703523489       -3.7672108946
 H        -8.4286956700        1.8699975710       -3.2441831428
 H        -8.5309962012        6.6159567277       -5.4418951127
 H        -7.3746929707        5.7596687680       -4.7506044555
 H        -8.4630155451        8.5677016005       -3.8703770525
 H        -6.8107313712        8.2081638894       -4.5439401738
 H        -8.9964330129        8.3341353767       -1.0226861001
 H        -9.0078273095        9.5482830267       -2.3232741347
 H       -10.1327736910       11.1352820460       -0.9476978725
 H        -8.9748898514       10.9282691752        0.4078724255
 H       -12.6006850605        7.4010257571        0.7439435681
 H       -13.9887935268        7.9999603388        1.8985486275
 H       -13.9146483931        6.1427698508        2.9896417275
 H       -12.2275278371        6.5502216182        3.6741556361
 H        -7.6201427207        4.9311314491        2.9317469696
 H        -7.5854430890        4.1507980147        1.3072764080
 H        -8.4714007628        3.5451546415        2.9435168384
 H       -10.8388410582        5.0916674750        4.4322753541
 H       -10.0941517064        3.3644010182        4.1029809188
 H       -11.8553112926        3.4902846381        4.2398174409
 H       -10.6910835137        2.3602679563        2.1237749397
 H       -10.8786035324        3.2876380748        0.6950395782
 H       -12.2703616094        2.6503373443        1.6974839894
 H       -11.3556876818       12.2912211770        1.2612995923
 H       -10.3220974316       11.0703440167        2.1989458139
 H       -11.9040256366       11.5494883033        2.6872159312
 H       -13.3973578177        9.2797695060       -0.0471633010
 H       -12.8016688595       10.8202868685       -0.6285703834
 H       -13.9163171846       10.7439418655        0.8953454991
 H        -5.1895174631        8.0852321386       -0.1616385419
 H        -4.2866469061        9.5280121476       -0.7501339673
 H        -4.2642164380        8.1617750079       -1.6922274219
 H        -5.3674593829        9.7025054032       -3.6870111022
 H        -5.1431365320       10.8667924482       -2.2584378672
 H        -6.7279352976       10.8764582009       -3.1754149028
 H        -9.6779576761        3.1026930945       -5.6058102116
 H        -8.1211901749        3.2339043160       -4.4707355295
 H        -8.6695173807        4.4121405345       -5.6989546345
 H       -11.9451726442        5.3040452610       -3.8123884226
 H       -11.8553915894        3.5680875372       -4.5481837454
 H       -11.0734831331        4.8917763621       -5.4180304071
 H        -7.5163310143       -0.3825413527        0.8704826994
 H        -8.8380874347       -1.4889004828        1.6038476251
 H        -9.2570857973        0.1539059151        1.1780790062
 H        -7.1584577623       -2.2343649792       -1.3358863140
 H        -8.6532377340       -3.0485316388       -1.9042234356
 H        -7.8119311850       -3.4004564345       -0.5497211903
 H       -10.8726829902       -8.0471007957        3.0164622925
 H        -9.6185248787       -7.2607090916        2.2518234448
 H       -10.9779438395       -7.7240734919        1.3311979564
 H       -13.3951241976       -6.8070415417        2.9917298406
 H       -12.9403565517       -6.6034513796        1.2335271309
 H       -13.3973414998       -5.2185214845        2.4163761579
 Na      -10.8779973928        5.9271722477       -0.7918242271
