117

 C       -12.6085844987       -5.4051603924        4.9010515392
 C       -11.5231673619       -5.1312553036        3.9181604348
 O       -10.5978342233       -4.3970625732        4.2003674932
 C       -11.6117971409       -5.8933101420        2.5311128535
 C       -11.1599402536       -4.9492299341        1.3232766716
 O       -10.8705230020       -5.2703499330        0.2042250688
 C       -11.4714375692       -3.4850484645        1.7115219950
 C       -11.7897552587       -2.3309994272        0.7059921404
 C       -10.7918777821       -1.7949205527       -0.3271617090
 O       -11.3042913035       -1.4871435370       -1.4184535040
 C        -9.3600054598       -1.4134672055        0.0184020177
 C        -8.8162283363       -0.3696470058       -1.0982501752
 O        -8.2314536469       -0.7371471606       -2.0749084845
 C        -8.9624175115        1.2900342272       -0.6516287312
 C        -8.7948908963        2.1904482384       -1.9017457440
 C        -9.5954051779        3.5468473535       -2.0633604401
 O       -10.2277640322        3.9999132874       -1.1078029066
 C        -9.6626346078        4.2431501489       -3.4523871782
 C        -8.9656795142        5.6612898564       -3.3368271917
 O        -9.3803835374        6.5381355995       -2.5839588319
 C        -7.8858859156        6.0193277476       -4.4016614841
 C        -7.1914100684        7.2970045783       -4.2079009818
 C        -6.5421559978        7.4119992377       -2.8222773174
 O        -6.3343895610        6.4554538466       -2.1110477635
 C        -6.0613900907        8.9357960588       -2.3732579764
 C        -7.1420219270        9.6261512082       -1.4883026765
 O        -6.7704152968       10.2700277075       -0.5051307257
 C        -8.6256603817        9.6175474074       -1.8761464596
 C        -9.5142991389       10.5293212406       -0.9921527292
 C       -10.6748012170        9.5839981521       -0.5277071821
 O       -10.8859285375        8.4960257180       -1.0567826535
 C       -11.8763144429       10.1957223051        0.4571241779
 C       -11.8324289132        9.2628641926        1.6840544744
 O       -10.8802061636        9.3967877675        2.4710871435
 C       -12.8124020105        8.0100681533        1.7171307262
 C       -12.4464880129        6.9461094996        2.6757651387
 C       -11.9614220281        5.6326078106        1.9431152729
 O       -12.5840760989        5.2887934908        0.9414371189
 C       -10.8925250283        4.7070530395        2.6599645661
 C        -9.5554060022        4.9589773515        1.9153610674
 O        -9.3451326212        5.6237372458        0.8941039050
 C        -8.2658460012        4.5228029795        2.6612752261
 C       -10.5444112660        4.9742745703        4.1795978962
 C       -11.2440173094        3.2243141032        2.3182079386
 C       -11.7945005332       11.6286664665        0.9326540292
 C       -13.1064867857       10.1748570931       -0.5008767771
 C        -4.8757350187        8.7987324592       -1.3166581654
 C        -5.6478080521        9.8079047619       -3.5195380105
 C        -9.1184190709        3.2499792136       -4.5432693455
 C       -11.1257506682        4.5973983647       -3.8209189678
 C        -9.3298898815       -0.8794360329        1.5341040476
 C        -8.4400241261       -2.7147041877       -0.0517007201
 C       -10.8698669466       -7.2211864396        2.6383312697
 C       -13.0546440396       -6.1030670843        2.0902227242
 H       -13.5529505546       -5.3894215023        4.3501156753
 H       -12.7750018538       -4.5766757633        5.6255816097
 H       -12.3442378117       -6.2888392338        5.4564229593
 H       -10.5160204308       -3.4526922715        2.2629883190
 H       -12.1837378142       -3.3693301111        2.4937548845
 H       -12.0028563451       -1.5295339196        1.3015132687
 H       -12.7288460304       -2.7320995473        0.2436148583
 H        -8.2857755579        1.5397074859        0.1201482256
 H        -9.9652999655        1.3479894304       -0.1978347985
 H        -8.9582063344        1.6640359052       -2.8126552128
 H        -7.7929168603        2.5258644374       -2.0308338610
 H        -8.2834935838        6.1433653690       -5.4424545818
 H        -7.3285964290        5.2324249550       -4.6129723828
 H        -7.7592328996        8.2498320107       -4.3435730964
 H        -6.2849922545        7.4332817600       -4.8920616326
 H        -9.0264226659        8.6551401823       -1.9006856160
 H        -8.6180593630       10.0480129109       -2.9050203449
 H        -9.7614948843       11.4451231166       -1.5127606063
 H        -9.0572546754       10.9072461671       -0.0407872815
 H       -12.8033436350        7.6312058656        0.6684457165
 H       -13.7657288804        8.3416384053        1.8860520385
 H       -13.2771423341        6.4842158764        3.2322740428
 H       -11.7659623258        7.2359490399        3.4941400924
 H        -7.8056916081        5.1736034232        3.4355776511
 H        -7.5169155240        4.3556722717        1.8884983180
 H        -8.3176613837        3.6109370920        3.2429787842
 H        -9.5414085042        5.3983782231        4.1915889924
 H       -10.2991639238        3.9370631565        4.5829697859
 H       -11.2867161658        5.4568015939        4.6427850600
 H       -10.4966585458        2.6666417164        1.9234713642
 H       -12.0088090718        3.3903050956        1.5150383944
 H       -11.9276058858        2.7107098168        3.1595436504
 H       -11.8678135103       12.1979713152        0.0906098389
 H       -10.8193231457       12.0261600698        1.3101348094
 H       -12.5695073042       11.7877468073        1.7003079895
 H       -13.1878421428        9.1434325141       -0.8403714716
 H       -12.7805960348       10.8863930547       -1.2633948858
 H       -14.0248238302       10.5492168402       -0.0085944034
 H        -5.1827863182        8.4798080718       -0.3288101532
 H        -4.4390845567        9.7506267294       -1.1909419263
 H        -4.2099734617        8.0525585986       -1.5834447228
 H        -5.4786853029        9.0413791545       -4.1897156254
 H        -4.7258433830       10.3169110130       -3.4396217362
 H        -6.3226293153       10.6525704689       -3.7267511085
 H        -9.7597153293        2.3134567320       -4.6199758327
 H        -8.0158860262        3.0270245356       -4.4971934092
 H        -9.2355542681        3.7072054888       -5.5552201024
 H       -11.3774019031        5.6050794003       -3.5427259581
 H       -11.6068327644        3.8630481454       -3.3507684157
 H       -11.3567081506        4.5928924333       -4.8635011397
 H        -8.7121502626        0.0198151149        1.6118817000
 H        -8.8808012170       -1.4912592261        2.3009122963
 H       -10.3497310313       -0.5535540584        1.7321074385
 H        -7.9412667820       -2.9888060221        0.9776796266
 H        -7.6479319044       -2.7964377591       -0.8408680966
 H        -8.9762771479       -3.7262437812       -0.1687700430
 H       -10.7785616388       -7.8301661446        3.5736366168
 H        -9.9735927493       -7.0104269255        1.8903108793
 H       -11.4945798727       -7.9454456269        2.1445308663
 H       -13.7425450615       -6.8005564705        2.6319892562
 H       -13.1587008463       -6.1655984324        1.0304716135
 H       -13.4483226694       -5.0544687989        2.1999489715
 Na      -10.7529382754        6.1511884306       -0.8269970038
