117

 C       -12.6271310771       -5.9721157133        5.0804888560
 C       -11.8392116609       -5.2430192198        3.9951042028
 O       -11.0330708510       -4.3805499105        4.4010225827
 C       -11.8898027743       -5.7112494771        2.5468303543
 C       -11.4554987803       -4.4348608086        1.5733925109
 O       -10.5631598231       -4.6925703637        0.8389903624
 C       -12.2145598554       -3.1789384005        1.5901675518
 C       -12.2535531119       -2.2498854351        0.3415159080
 C       -10.9719424065       -1.6691882848       -0.3528080325
 O       -10.9115553056       -1.5348640482       -1.5981091426
 C        -9.5940004417       -1.2115790190        0.2894609648
 C        -8.9067583332       -0.2238323362       -0.7653402665
 O        -8.5300423805       -0.6697180670       -1.8078708973
 C        -8.9172746361        1.3094727126       -0.4291652799
 C        -8.5402424909        2.1296446791       -1.6087671220
 C        -9.5508995692        3.1728831322       -2.0400063323
 O       -10.2821241544        3.6275898409       -1.1511796663
 C        -9.6961161675        3.7681862211       -3.4195369579
 C        -8.8505081705        5.0630572381       -3.2152476869
 O        -9.1990640537        5.9695187092       -2.4707552889
 C        -7.5125525718        5.2042187867       -3.9799572465
 C        -7.0379826372        6.6761183745       -4.0804091676
 C        -6.4741010052        7.3385851417       -2.7599679730
 O        -6.5426850477        6.6192760037       -1.8153187312
 C        -5.8899905446        8.7520712583       -2.6469699240
 C        -6.9862218411        9.4907940942       -1.6455218230
 O        -6.5879721154       10.0205887558       -0.6221341736
 C        -8.4699365939        9.4781778888       -2.0213389104
 C        -9.5373765048       10.2879722308       -1.1760393004
 C       -10.8991100738        9.5409649492       -1.0807053525
 O       -11.0431691746        8.3939514550       -1.4518373859
 C       -11.9370712323       10.2265494717       -0.1313993397
 C       -11.6908298593        9.4034990158        1.2662594315
 O       -10.7737004094        9.7098208674        1.9966304804
 C       -12.7086588099        8.3871189053        1.7427699286
 C       -12.0903076177        7.3662922363        2.6696394597
 C       -11.6048260466        6.0542803141        2.0229311759
 O       -11.8165469670        5.7583785322        0.8805659996
 C       -10.7638148165        4.9925825378        2.8601983380
 C        -9.3076431064        5.1138338682        2.1903582039
 O        -9.0442421424        5.5987431489        1.1226151511
 C        -8.1338383000        4.6106441255        3.0727581162
 C       -10.7429226440        5.4098922508        4.3466274873
 C       -11.2907452432        3.5172272687        2.4669854640
 C       -11.5886580730       11.7087435423        0.0939779395
 C       -13.4228588095       10.2845951715       -0.5855859803
 C        -4.5064100145        8.7273369088       -1.8771696679
 C        -6.0221858301        9.6892021550       -3.9881084034
 C        -9.3424178567        2.7160715268       -4.4887235024
 C       -11.1263926884        4.3538980676       -3.6419991203
 C        -9.6818962213       -0.5071660682        1.6762810274
 C        -8.7031873178       -2.4123974509        0.3128435390
 C       -10.9440756514       -6.9480181592        2.2872161500
 C       -13.3901411095       -6.2363559177        2.1934924728
 H       -13.6895296756       -5.7130353951        4.7363851447
 H       -12.5177064316       -5.5258107283        5.9834453078
 H       -12.3790857643       -7.0578494236        5.1581894820
 H       -11.9132713581       -2.4186696597        2.3179852387
 H       -13.2557926982       -3.5191381664        1.7875342802
 H       -12.8975970532       -1.5260480731        0.7310856634
 H       -12.5878158336       -2.8884026712       -0.5304558444
 H        -8.4496646449        1.4619968445        0.5150863816
 H        -9.9984538422        1.4493819179       -0.1831381663
 H        -8.2077837572        1.5207013631       -2.4838843121
 H        -7.6606907876        2.7588012807       -1.3326789022
 H        -7.6492119438        4.9245456691       -5.0703783820
 H        -6.8446534194        4.5750458941       -3.5765548708
 H        -7.8765833648        7.3209832149       -4.4008281331
 H        -6.1110406873        6.7319017025       -4.7381166690
 H        -8.8451813451        8.4544794175       -2.1656835626
 H        -8.3338065947        9.8968194899       -3.0950611298
 H        -9.6434672173       11.3102407868       -1.5338599784
 H        -9.0926049590       10.3748907804       -0.1489209473
 H       -13.1888026320        7.9800802020        0.7972387429
 H       -13.4392285753        8.9187740557        2.2322266135
 H       -12.6186659180        7.1603250255        3.6608310176
 H       -11.1102582966        7.7269455109        3.0396437978
 H        -7.4588211377        5.4072409130        3.4768693367
 H        -7.4054732376        3.9672445255        2.4330165401
 H        -8.2995879528        3.8873232954        3.8112150544
 H       -11.3891855485        6.2672238466        4.6293754591
 H        -9.6582700249        5.3811108737        4.6687973007
 H       -11.2162354726        4.5724018964        4.8034827394
 H       -11.0488089111        2.7024042580        3.2367980837
 H       -10.7955498544        3.2650068254        1.5654122154
 H       -12.3228362354        3.6382794047        2.1966125598
 H       -11.2813392317       12.2938267726       -0.7915312461
 H       -10.7047740716       11.8078834515        0.7314085043
 H       -12.3901714048       12.2659277809        0.5497688564
 H       -13.5820044400        9.2553681572       -0.9451242189
 H       -13.5517000405       11.0284304340       -1.4083412920
 H       -14.0243908937       10.5419525661        0.2863120990
 H        -4.4825118538        7.8091062313       -1.2674077110
 H        -4.6456657060        9.4250753138       -1.0576963527
 H        -3.5364490626        8.8958311609       -2.3898352636
 H        -4.9878760655        9.7793690321       -4.4392720792
 H        -6.3591923561       10.7497719614       -3.7407341258
 H        -6.7165191321        9.2748110727       -4.8169505665
 H       -10.0529140422        1.8905711821       -4.6519741927
 H        -8.4626986142        1.9894515740       -4.2883292725
 H        -9.1457662638        3.3618522085       -5.3431462233
 H       -11.5770514693        4.7114385471       -2.7474771572
 H       -11.7632244284        3.5429559635       -4.0970978558
 H       -10.9509904219        5.1435707725       -4.3812470335
 H        -8.7725041844       -0.0259633391        2.1033169751
 H       -10.0523087019       -1.1775401656        2.4226700316
 H       -10.3356723093        0.4467725023        1.6330411418
 H        -7.5991084208       -2.0503513495        0.3911393667
 H        -8.5816727635       -2.9567419509       -0.5712577173
 H        -9.0109050353       -3.1311626466        1.1343350599
 H       -10.1897727115       -6.8178946725        3.0406122442
 H       -10.5813149154       -6.9406129577        1.2395777058
 H       -11.5737972146       -7.8198258800        2.5514559510
 H       -13.5367512780       -6.9977312076        3.0207768341
 H       -13.6210653982       -6.7856916875        1.2790022252
 H       -14.1208573520       -5.3786387755        2.4033579527
 Na      -10.5144638250        6.1085399916       -0.8694271672
