117

 C       -12.1776079852       -6.2834167171        4.9910096352
 C       -12.2752602784       -5.1292542977        3.8955554444
 O       -12.4141045457       -4.0111412378        4.4017248243
 C       -12.2465984149       -5.5372095516        2.3440707817
 C       -11.9802216201       -4.3952766232        1.4382173157
 O       -11.2154818540       -4.5066903198        0.5786071839
 C       -12.7465138202       -2.9153256641        1.7250479734
 C       -12.4268307053       -1.9038441888        0.6948513772
 C       -10.9940787358       -1.9255977951        0.1602280505
 O       -10.7207592143       -2.3985672417       -0.9153559052
 C        -9.8350022250       -1.2041674660        1.0376368602
 C        -9.1537625774       -0.2551825081       -0.1601507033
 O        -8.6275338359       -0.7744998014       -1.0897983581
 C        -9.2443588574        1.3397056606        0.0559609669
 C        -8.6152671505        2.0110278343       -1.2280259113
 C        -9.3680418332        3.2507198377       -1.8756426143
 O       -10.1593331293        3.8416836136       -1.1498188380
 C        -9.4721214697        3.3997042912       -3.4770388466
 C        -8.4257063681        4.5891079419       -3.4519907613
 O        -8.7208707833        5.6418848759       -2.8322753753
 C        -6.8704546015        4.4226856988       -3.7758634574
 C        -6.4512499275        5.9300801324       -4.2582797797
 C        -6.0157052033        6.7662584983       -2.9394788239
 O        -5.7016583850        6.1549983513       -1.9235894209
 C        -5.8334795191        8.3577520298       -3.1482389635
 C        -6.8739451780        8.9049726616       -2.1047942708
 O        -6.4868718198        9.7002094103       -1.2925361500
 C        -8.4046213528        8.5144681765       -2.1699208627
 C        -9.3082907893        9.4768149981       -1.4152456468
 C       -10.7936641936        9.1435832449       -1.2397422287
 O       -11.1984623594        8.0205806842       -1.4320800896
 C       -11.8216623981       10.1737352596       -0.5727438986
 C       -11.6384264354        9.9404197429        1.0354944073
 O       -10.5889697961       10.4878209795        1.4293740538
 C       -12.5962013597        9.1913543151        1.9523534094
 C       -11.8788202860        8.1234033651        2.9046713170
 C       -11.3881441434        6.9007827429        2.1496824312
 O       -11.6697576490        6.7457184948        0.9920726305
 C       -10.6946881477        5.7546723505        3.0667832008
 C        -9.1957701992        5.8243078992        2.3845035167
 O        -9.0585347316        6.0487943935        1.2366302406
 C        -7.9156017085        5.5825804546        3.2417346284
 C       -10.8176648672        5.9773116932        4.5112886163
 C       -11.4350324367        4.4384210046        2.6588193296
 C       -11.7163216804       11.7015221961       -0.9049006913
 C       -13.2265211386        9.7086793587       -0.9962465925
 C        -4.3909409610        8.6879466634       -2.7013847819
 C        -6.2531631293        8.8646139999       -4.7448969891
 C        -9.0679066066        2.0764786041       -4.1887823942
 C       -10.9252930390        3.9010262190       -3.7767529285
 C       -10.6406576050       -0.4284502261        2.2370790848
 C        -8.8242459904       -2.1026356535        1.6924720419
 C       -11.2658153389       -6.6787179712        2.1383753214
 C       -13.7115670569       -5.9102220952        2.0163421951
 H       -11.9133489633       -5.8473608108        5.9915118839
 H       -11.5119980150       -7.0068833750        4.7112750710
 H       -13.2161781342       -6.6902002370        5.1318305955
 H       -12.4091211317       -2.5209224148        2.6454183347
 H       -13.8192893030       -3.0374843732        1.7592456397
 H       -12.6991353047       -1.0142783834        1.2075674259
 H       -13.0490076431       -1.6907028825       -0.2536820311
 H        -8.6155456488        1.5884772292        0.9043388412
 H       -10.2581618101        1.6600947699        0.1720335972
 H        -8.5129387784        1.1974565067       -1.8846952271
 H        -7.6965764552        2.5240578159       -1.0589761264
 H        -6.6346266388        3.6417622400       -4.6649585908
 H        -6.3818209308        4.2779871670       -2.7776788770
 H        -7.3532273920        6.2440263965       -4.7139049294
 H        -5.6455503236        5.9102798122       -4.9600373683
 H        -8.7570603225        7.5405293038       -2.0548635724
 H        -8.5433645190        8.7316738417       -3.2306722411
 H        -9.2259316795       10.4040790589       -1.9453338882
 H        -8.8729813473        9.6501766944       -0.4244658914
 H       -13.2295127169        8.6644002974        1.1117798643
 H       -13.1722908349        9.8431879265        2.5745167203
 H       -12.7286482741        7.8280282366        3.5144083689
 H       -11.0735088461        8.5383032661        3.4939465936
 H        -7.7010075947        6.3193237222        3.9963981182
 H        -6.9758609101        5.6633353941        2.5941976856
 H        -7.7364675086        4.6660077729        3.6334523812
 H        -9.8128465630        6.0496599151        5.0857211153
 H       -11.1333213257        5.1294998367        4.9424169506
 H       -11.4401062401        6.8471996887        4.8957150655
 H       -10.9485636875        3.5368440667        3.3085155005
 H       -11.1585330221        4.3108551202        1.6346243712
 H       -12.4302389223        4.3682581533        2.8758959561
 H       -11.8448904877       11.9365142857       -2.0164124159
 H       -10.7891847952       12.1318258694       -0.5735149589
 H       -12.4065385692       12.3956002966       -0.4439087913
 H       -13.2479970270        8.6070828380       -0.7682269911
 H       -13.4318365311        9.8703897384       -2.0733574206
 H       -13.9567675924       10.3019561605       -0.4231249472
 H        -3.7736710730        9.2137849053       -3.3564899950
 H        -3.9213568600        7.8472849725       -2.3174293680
 H        -4.4184308359        9.4343939418       -1.9034142708
 H        -5.4917061032        8.9829861886       -5.4249768945
 H        -6.6890164810        9.8110986734       -4.6792715922
 H        -6.9026203410        8.1824451392       -5.1957305805
 H        -9.9149473270        1.4767423901       -3.9321580263
 H        -8.0495648121        1.5966329994       -3.9758869877
 H        -9.2337056236        2.0967916039       -5.2125521044
 H       -11.0855121988        4.7278679228       -3.1628320225
 H       -11.8036510160        3.1270236805       -3.7732436417
 H       -10.8936018162        4.3225268985       -4.7757668135
 H        -9.9319419333        0.1243666973        2.8576683004
 H       -11.2614155646       -0.8124145255        2.9404963248
 H       -11.2534005951        0.3002415556        1.7348997175
 H        -7.8760586681       -1.5094334429        1.9505377744
 H        -8.5171365744       -2.9352189363        1.0323431971
 H        -9.2579153674       -2.6234414663        2.5427508580
 H       -11.6863692693       -7.4096203441        2.7722894961
 H       -10.3092075473       -6.2013733311        2.3777749264
 H       -11.1418253446       -6.9528963574        1.0250857161
 H       -14.1932100759       -6.4417400945        2.8838756104
 H       -13.5913215247       -6.5751906219        1.2030773095
 H       -14.4303318869       -5.0607277104        1.8065906944
 Na      -10.3716379637        5.9883924451       -0.9594213868
