117

 C       -12.1438807611       -6.1757211214        5.1307026336
 C       -12.4374081993       -5.1990825096        4.0335298746
 O       -12.7718139469       -4.0843500355        4.3374477808
 C       -12.4449569877       -5.5793217273        2.4157587388
 C       -12.2978038221       -4.4129808029        1.4385996715
 O       -11.4883736742       -4.6216158450        0.5186435410
 C       -12.9349250615       -3.0918972068        1.5535832839
 C       -12.5228285145       -1.9749578364        0.5237050443
 C       -11.0108644417       -1.8968049874        0.3356464602
 O       -10.5382686661       -2.3095296598       -0.6858736293
 C       -10.0103708051       -1.0313431263        1.3246317342
 C        -9.1937525579       -0.2568929228        0.2315053621
 O        -8.4972448181       -0.7755422566       -0.6461118282
 C        -9.2370257182        1.3131905591        0.2656435085
 C        -8.6316511223        1.7656397950       -1.0608479517
 C        -9.4825255109        2.8375603793       -1.6802260637
 O       -10.1975072520        3.4992323267       -0.9327413095
 C        -9.2803318771        3.1469417891       -3.2646620091
 C        -8.2297566033        4.4409185183       -3.3093056936
 O        -8.6569241763        5.4671878651       -2.8450065015
 C        -6.9769015652        4.2668896112       -4.1358162029
 C        -6.3825042111        5.6707990324       -4.4520381339
 C        -5.9419391595        6.5584417520       -3.1373595738
 O        -5.6822174430        6.0755964284       -2.0942994674
 C        -5.9488130176        8.2139118883       -3.2504809769
 C        -6.8704315195        8.7853120481       -2.0455792695
 O        -6.4372987740        9.7010312341       -1.4203137826
 C        -8.3937344232        8.4405312080       -1.9787649710
 C        -9.2136466945        9.6357841539       -1.3530976385
 C       -10.6406281858        9.1847131006       -1.3391578522
 O       -10.9315992672        8.1019072068       -1.9047267668
 C       -11.6866883272        9.9844276956       -0.5959427482
 C       -11.5191839257       10.0599632408        0.9536745632
 O       -10.5631793953       10.5925402476        1.4242636298
 C       -12.6776554826        9.4477421937        1.8903901943
 C       -11.9163383026        8.5643015305        2.9097718795
 C       -11.5408001624        7.2701995955        2.2176448435
 O       -11.6886751476        7.0880403111        1.0284397991
 C       -10.6852893869        6.0593285660        2.9051079704
 C        -9.2326118648        6.0929036689        2.2522275462
 O        -9.0546522820        5.9736388725        1.0233024240
 C        -8.0407203274        6.1349264180        3.1447626838
 C       -10.5834189985        6.2594412801        4.4182243761
 C       -11.3464198638        4.6993318169        2.4457319085
 C       -11.7418190916       11.5174163691       -1.0065066743
 C       -13.0563644217        9.3861906193       -1.0300476302
 C        -4.4253655557        8.7471778878       -2.9893427134
 C        -6.2074831449        8.7884113002       -4.7180704287
 C        -9.0000169378        1.9353136125       -4.1687556822
 C       -10.5521701078        3.8665252671       -3.8740769182
 C       -10.5284801054       -0.1971279900        2.5363591240
 C        -8.8785191776       -2.0672122781        1.7409176837
 C       -11.4825260226       -6.8256099895        1.9894923538
 C       -13.9783869460       -6.1210462505        2.2486923234
 H       -11.9449453245       -5.6944891835        6.0838504238
 H       -11.2585892510       -6.7845037925        4.8807671857
 H       -12.9885114461       -6.8226024050        5.2770295189
 H       -12.5434382149       -2.8381681234        2.6140674483
 H       -14.0463978098       -3.2572489000        1.6291854649
 H       -13.1069462511       -1.0139291936        0.7395590191
 H       -12.7945069915       -2.0464978509       -0.4889897912
 H        -8.5023733905        1.7302540643        0.9656860068
 H       -10.2487733889        1.7701065039        0.3715168872
 H        -8.8105428507        0.8994699717       -1.7775022066
 H        -7.5607870586        2.1319432434       -1.0347533796
 H        -7.1927319642        3.7383664268       -5.0063370425
 H        -6.3212827354        3.8046597407       -3.4764327000
 H        -7.2060082390        6.1469363801       -5.0927564943
 H        -5.4912041485        5.6149370231       -5.1387879049
 H        -8.6722769496        7.4138823603       -1.5306448224
 H        -8.6841607499        8.3042349278       -3.0550003636
 H        -9.1313788661       10.4247423061       -2.1257668282
 H        -8.8055452670       10.0773632261       -0.4445031685
 H       -13.3285384244        8.9163585097        1.3330219570
 H       -13.2010749079       10.2763071596        2.4502711312
 H       -12.7051211348        8.4127040139        3.6980672644
 H       -10.9821202499        9.1083821068        3.2884627590
 H        -7.7350474755        7.1927119289        3.3483319614
 H        -7.1453424567        5.5954183391        2.9342828651
 H        -8.2363263420        5.7162394257        4.1864500749
 H       -10.2282614876        7.2159641329        4.6919187723
 H        -9.7213753183        5.5500311825        4.8451074625
 H       -11.4284480059        6.1565871749        5.0117464449
 H       -11.3879594576        4.1632860792        3.3212678864
 H       -10.7755909463        4.1535448163        1.7212843616
 H       -12.4407228764        4.7739128317        2.0879466232
 H       -12.1822674359       11.7384323606       -1.8924192733
 H       -10.7237954545       11.9837227323       -1.0572389070
 H       -12.1944013490       12.1559072408       -0.2093125593
 H       -13.0640866840        8.3580157772       -0.7039883343
 H       -13.0814994198        9.4407096354       -2.1121466304
 H       -13.9304330554        9.9604276816       -0.6449061635
 H        -3.4961856798        8.0926864170       -3.2307686988
 H        -4.3055228387        8.7853121713       -1.8549141289
 H        -4.1424260622        9.7120708805       -3.3770481129
 H        -5.6905642879        8.1470654409       -5.5288500752
 H        -5.8827103444        9.8802419001       -4.7809991561
 H        -7.3479612267        8.8979914856       -5.0232091972
 H        -9.7297839171        1.1161952999       -4.1205099005
 H        -7.9737100420        1.8283498640       -4.1071379427
 H        -9.1466291389        2.1408815841       -5.2487688042
 H       -11.1684406569        4.5332937814       -3.1688031881
 H       -11.0859037759        2.9769224788       -4.1356406805
 H       -10.3616221248        4.5130451000       -4.8001979860
 H        -9.7605188776        0.1896292146        3.1892255004
 H       -11.0618321308       -0.8901891483        3.2714873071
 H       -11.2472331723        0.5874260302        2.3370521197
 H        -7.9690783169       -1.4719409879        1.8213192560
 H        -8.8657762840       -2.8201769807        0.9220943641
 H        -8.8153531095       -2.5383631984        2.7620323298
 H       -10.7853365645       -6.9206904909        2.8613711077
 H       -10.9699857969       -6.6205705590        1.0394752567
 H       -11.9716106987       -7.7038061019        1.9437555387
 H       -14.0636266972       -6.8934735518        2.9716123933
 H       -14.2256633312       -6.4738202205        1.2414037432
 H       -14.6485004649       -5.3387327174        2.4865385714
 Na      -10.2693370759        6.1389357274       -0.8889158287
