117

 C       -12.5098253598        2.8786645276      -10.8936509487
 C       -12.8862730208        1.8363747477       -9.9272409338
 O       -13.8993221273        1.9366546164       -9.2367144884
 C       -11.9970606307        0.5508535696       -9.8167474061
 C       -11.4703973747        0.2715315251       -8.3092566790
 O       -11.4282877180       -0.8581908444       -7.8550425485
 C       -11.1888982603        1.5543921665       -7.4390416559
 C       -10.1981113311        1.2585186312       -6.2416314280
 C       -10.3050058314        2.3200721997       -5.1530273277
 O       -10.9129946537        3.3430111869       -5.3083037012
 C        -9.5482909372        2.0710972001       -3.7662034999
 C        -8.6615525382        3.4634269811       -3.5027009320
 O        -7.4649768838        3.5337700251       -3.7523452987
 C        -9.4705517643        4.6215855363       -2.9737962467
 C        -8.6319156437        5.8100904887       -2.5217595811
 C        -8.4602921035        5.9458973036       -1.0319550143
 O        -8.4129423499        4.9404589298       -0.3606983756
 C        -8.3775080267        7.3731213201       -0.3629657021
 C        -9.6280983180        7.4940697544        0.5532803376
 O       -10.3791063842        6.5782770715        0.8223568856
 C        -9.7401860444        8.9369111286        1.2492949827
 C       -10.3510575736        8.8028464740        2.6499409907
 C        -9.6104967247        7.7676107647        3.4680203381
 O        -8.4809292557        7.4004156992        3.3618231499
 C       -10.6941754658        6.9807110208        4.5136164765
 C       -10.1453152452        5.6137399867        5.0716080705
 O        -9.8316574542        4.7539130708        4.2650061508
 C        -9.8900904497        5.3283203602        6.5432113503
 C        -9.9747361287        3.8287342021        6.8843307547
 C       -11.3332262597        3.1906360330        6.3165846928
 O       -12.0855754563        3.7734411169        5.6228011578
 C       -11.3806853389        1.5979341479        6.4192729403
 C       -10.1393874298        1.1874637645        5.5656011524
 O        -9.0420600039        1.1408536212        6.1285874964
 C       -10.2924104010        0.8032933365        4.0928072689
 C        -8.9066099068        0.4820593831        3.4634671903
 C        -8.3473286835        1.7510362594        2.7310368271
 O        -9.1949452647        2.5247771348        2.2571876545
 C        -6.7483570900        1.9753247524        2.4743890235
 C        -6.4299974723        3.1698408845        3.4876547814
 O        -6.8879531271        4.2968495339        3.3296312727
 C        -5.5204344550        2.8403586309        4.7679082410
 C        -5.8304300555        0.7535278029        2.5549899956
 C        -6.6841183700        2.5429369981        1.0558202924
 C       -11.2417162348        1.1276455510        7.9098462726
 C       -12.7473835644        1.1011616085        5.8915623658
 C       -11.1376544115        8.0230436968        5.6255682389
 C       -12.0620628320        6.6305308166        3.7995379988
 C        -6.9812544428        7.4854126938        0.3940892492
 C        -8.3354700777        8.5527279588       -1.3612677221
 C       -10.6620080641        1.8589210564       -2.7398199881
 C        -8.5622905357        0.8473532443       -3.8610403763
 C       -12.7544418163       -0.6814962796      -10.3464599087
 C       -10.6910323029        0.5933381937      -10.6278376227
 H       -13.4553031958        3.4884287982      -11.0714126097
 H       -12.0431693323        2.4703925160      -11.7351119204
 H       -11.7619712875        3.6391107723      -10.5169594537
 H       -12.2017620425        1.9230499116       -7.0005834973
 H       -10.7479193320        2.4433623232       -7.9247314411
 H        -9.1346433103        1.2536038517       -6.6262115815
 H       -10.3983264982        0.2847309872       -5.7886776281
 H       -10.0342101010        4.3166251854       -2.0797729561
 H       -10.2333751678        4.8092250139       -3.7818887538
 H        -8.8498851099        6.7199456192       -3.0082937023
 H        -7.5913263095        5.7249635628       -2.9031630007
 H       -10.4528996685        9.7044074918        0.7467345786
 H        -8.7420229183        9.2980739918        1.3793435885
 H       -11.3639929802        8.6345269916        2.4225873763
 H       -10.1686674874        9.7715309005        3.1224885839
 H       -10.5921899157        5.9113138541        7.1637150146
 H        -8.8295470911        5.6444988809        6.7522354178
 H        -9.7625598838        3.7645583614        7.9934479298
 H        -9.1624424993        3.3153729457        6.3198017475
 H       -10.8542237406        1.5284177640        3.4828138430
 H       -10.9213059328       -0.1366802172        4.1620506423
 H        -8.8906952798       -0.1202636791        2.6176628852
 H        -8.2674730125        0.0069763025        4.1876091651
 H        -5.1437813688        3.7212472340        5.2670668514
 H        -4.7154523188        2.1245384781        4.5294928309
 H        -6.2427604014        2.3657290950        5.4623212795
 H        -6.2172675424       -0.0543365170        1.9694257709
 H        -5.5581789037        0.4216044023        3.5859590605
 H        -4.8620659929        0.8720186763        1.9398982022
 H        -6.9144184916        3.5356893143        1.1332679138
 H        -7.3785354599        1.9519217483        0.3822073190
 H        -5.6525968245        2.5533299002        0.6096431763
 H       -10.7004384391        1.7482569680        8.6338501152
 H       -10.8985088905        0.0946432338        7.8836567955
 H       -12.2563409478        1.2187637525        8.3817262744
 H       -12.4839105416        0.4940087825        5.1162668404
 H       -13.3898148069        1.9822799296        5.7611519861
 H       -13.2968300290        0.5008753542        6.6040170374
 H       -11.7548306300        8.8786437011        5.2164049723
 H       -10.3128115566        8.5833646135        6.0023122852
 H       -11.7415315598        7.4755205528        6.4039310634
 H       -11.9368157572        5.9953582294        2.8338780884
 H       -12.5562429489        7.6064444798        3.4708257248
 H       -12.5807054971        6.0732582724        4.5642343442
 H        -7.1018879122        8.1526370774        1.2211022397
 H        -6.1737954880        7.7401839044       -0.3494268782
 H        -6.7167684928        6.5476624322        0.7273563126
 H        -7.6943893162        8.3586716394       -2.2397763306
 H        -7.8498707754        9.3923354181       -0.9020462396
 H        -9.3124975021        8.6724615120       -1.6610875962
 H       -11.1841037128        0.9569871499       -3.0037583292
 H       -11.3182197774        2.6898180511       -2.7876434035
 H       -10.2432815665        1.6390886008       -1.7641601563
 H        -9.0961565671       -0.1152115567       -3.9562898976
 H        -7.7780490690        0.9032693019       -3.1143316991
 H        -7.9203492369        0.9033512095       -4.7317650125
 H       -13.7917423933       -0.5072552046      -10.1330437562
 H       -12.3383076665       -1.5832190261      -10.0431499232
 H       -12.7834179957       -0.6641643738      -11.4433099811
 H       -10.2463215109        1.5812763882      -10.7343740479
 H       -10.8715139717        0.3372366516      -11.6871081947
 H        -9.9110326777       -0.1635800061      -10.3595915723
 Na       -8.9617724835        4.8789520660        2.0570429965
