117

 C       -11.8292279520       -5.8316391462        4.4195695012
 C       -13.3507930180       -5.4959994895        4.2868652942
 O       -14.0209475388       -5.0286365833        5.1352623454
 C       -13.9475472073       -5.8454686164        2.8450073935
 C       -13.1454798781       -4.9947396617        1.8148196540
 O       -12.2658353135       -5.6810489616        1.1897871527
 C       -12.9737919546       -3.4160806865        1.8162340441
 C       -12.3467110172       -2.8097113791        0.6450773970
 C       -11.0276364434       -2.0410278396        0.7935255446
 O       -10.4683840607       -1.6021750066       -0.2649809746
 C       -10.5772593962       -1.4131467215        2.1476195761
 C        -9.7005189342       -0.1222397261        1.9641795951
 O        -8.6209717528        0.0540348828        2.4722854837
 C       -10.3349939140        1.1084773973        1.0915969038
 C        -9.4147255007        1.2900033149       -0.1644460172
 C        -9.2199805045        2.6776515522       -0.8935606902
 O        -9.2334761852        3.5994899204       -0.1298101106
 C        -9.0514955743        2.7191139948       -2.4037505594
 C        -8.4880672987        4.0302063898       -2.9883817528
 O        -8.9192422065        5.0935449445       -2.5913126738
 C        -7.1692274566        4.0858075434       -4.0757583089
 C        -6.9031837709        5.5378100208       -4.8146355125
 C        -5.9865912369        6.3116780874       -3.8061475284
 O        -5.2698995144        5.6520318338       -3.1057880635
 C        -5.6850998636        7.8515983196       -3.7786017547
 C        -6.2962333411        8.6146018043       -2.4510556891
 O        -5.7543635582        9.5675149431       -1.9399514698
 C        -7.7517764278        8.3644334061       -2.2094250006
 C        -8.6430302290        9.4925560714       -2.6174088219
 C       -10.0588877171        9.1184165243       -2.1224147376
 O       -10.3038373659        7.9877784859       -1.8345623943
 C       -11.1120140933       10.2645151017       -2.0366939232
 C       -11.2559239031       10.3842042461       -0.4576176949
 O       -10.5209100044       11.0497735309        0.1754091725
 C       -12.3086435863        9.4575485674        0.2685211391
 C       -11.8917166462        8.9393740106        1.6467271023
 C       -11.2184383950        7.5798646567        1.6324912663
 O       -11.7220912795        6.8235371057        0.7646355813
 C        -9.9969058358        7.2638457314        2.5513589581
 C        -8.7380345022        7.7116367874        1.8365173316
 O        -8.6628248633        7.4574875739        0.6290511631
 C        -7.5916615268        8.3894911266        2.6598168477
 C       -10.2049128696        7.9973047624        3.9862645566
 C        -9.9099697597        5.7351705531        2.8501573427
 C       -10.6421660267       11.7166052958       -2.5339922264
 C       -12.3540787697        9.8571956574       -2.6524403560
 C        -4.0870383377        8.0139756780       -3.5995380706
 C        -6.2469269610        8.4837241955       -5.1307211513
 C        -8.1285237998        1.4891781374       -2.8539144173
 C       -10.4439940480        2.4687866654       -3.1629336167
 C       -11.6383561236       -1.0722257819        3.2776794402
 C        -9.6541107650       -2.6453294185        2.6720251694
 C       -13.7973670381       -7.4024751401        2.6688984662
 C       -15.4928964972       -5.3970866396        2.9564339963
 H       -11.4119573822       -5.6306642266        3.4335595232
 H       -11.5849823594       -6.9224403763        4.7627100868
 H       -11.3397106749       -5.2472241859        5.1837342432
 H       -12.4009434904       -3.1185715369        2.7026835727
 H       -13.9991979159       -3.0336923442        1.9708226938
 H       -12.9825147347       -1.9294299009        0.3879241273
 H       -12.5615555605       -3.6349235931       -0.1138789344
 H       -10.3329804230        1.9986487705        1.7054311387
 H       -11.3512017223        0.9257854176        0.8803658202
 H        -9.6700919681        0.5835541280       -0.9666516579
 H        -8.3943348604        0.9641193188        0.0834199956
 H        -7.2702328688        3.3747819507       -4.7314439490
 H        -6.2935636582        4.0514899969       -3.4677551662
 H        -7.8301215091        5.9393313829       -5.1122267652
 H        -6.2911526038        5.4615376714       -5.7557051207
 H        -8.0007704847        8.1854232681       -1.1631587051
 H        -8.0362476579        7.5118499592       -2.8701432845
 H        -8.7621195859        9.5665270901       -3.6636283069
 H        -8.2556786411       10.4179145329       -2.3120844554
 H       -12.7421118535        8.6061215168       -0.3074801689
 H       -13.0980209056       10.1926085173        0.3348561844
 H       -12.8589329381        8.9627255680        2.2641973963
 H       -11.3834420447        9.8005969980        2.1654838166
 H        -7.7400009900        9.4272967673        2.9944671844
 H        -6.6699861768        8.4600432031        2.0784046488
 H        -7.5355849390        7.8913635191        3.7115090166
 H       -10.6892127363        8.9784025546        3.8692667239
 H        -9.1916782426        8.3220780491        4.4111788740
 H       -10.8849096254        7.4429406881        4.5994189643
 H       -10.3172992103        5.4681784112        3.7724251270
 H        -8.9163491752        5.4237601022        2.9352468636
 H       -10.3770904215        5.2496158323        2.0240839585
 H       -10.6790688652       11.7544622382       -3.6272645407
 H        -9.7675692343       12.1326877074       -1.9967935141
 H       -11.4352035200       12.4120047508       -2.2618161582
 H       -12.4341109907        8.7497220097       -2.4880306317
 H       -12.3786989887        9.9875395137       -3.7492554331
 H       -13.2123842865       10.3984935896       -2.2847445843
 H        -3.8083492631        8.7137378016       -4.3490926821
 H        -3.6415785160        7.0619714597       -3.4756198644
 H        -3.9018169547        8.5783508220       -2.7083012818
 H        -5.6736385689        8.0194991772       -5.8487797358
 H        -6.2217655641        9.5483325728       -5.1637758770
 H        -7.2805574772        8.2454736766       -5.2720316664
 H        -8.4608769412        0.7029783802       -2.2436402754
 H        -7.1318724592        1.6164121069       -2.5840404214
 H        -8.4327453143        1.3075614762       -3.8677321866
 H       -11.3159492810        2.9868116323       -2.6697083096
 H       -10.6417114021        1.4114389794       -3.1520929551
 H       -10.6030842975        2.5303971761       -4.3086291453
 H       -11.3293737102       -0.3666338529        4.0492365215
 H       -11.8030042225       -1.9459359608        3.9100214562
 H       -12.5913689905       -0.7035665925        2.7967595056
 H        -9.8299428217       -3.4695311293        2.0573903689
 H        -9.8059719894       -2.9081959988        3.7257446235
 H        -8.6577793114       -2.2964114003        2.7808927602
 H       -12.9640602011       -7.8183855143        2.0478325795
 H       -14.6035847043       -7.7177338484        2.1098880574
 H       -13.8271110612       -7.9427282932        3.5198814901
 H       -15.9854965761       -5.5473463465        3.9226662870
 H       -16.0991347931       -5.8627702014        2.0730016226
 H       -15.5119589533       -4.2734240179        3.0273741571
 Na       -9.8988921450        5.8026014493       -0.6472349388
