117

 C       -11.8721002765       -6.0756100992        4.6866781049
 C       -13.2986695714       -5.5836114258        4.5082917838
 O       -14.1007892393       -5.3464355226        5.4131833342
 C       -13.9366145413       -5.6534250970        2.9202854808
 C       -13.0467297799       -5.0355987212        1.7586817381
 O       -12.4997316792       -5.6890664000        0.9689095931
 C       -12.9752669624       -3.4313252673        1.8129108459
 C       -12.2305306058       -2.8549946017        0.4884484798
 C       -11.1870033303       -1.8472060017        0.7823457403
 O       -10.5902929471       -1.5058070512       -0.1625692043
 C       -10.7949933200       -1.3088403202        2.2475207783
 C        -9.8369508934       -0.0383018165        2.0050625529
 O        -8.7145410249       -0.0022492239        2.4427374110
 C       -10.4002409012        1.2151025992        1.1911408809
 C        -9.6218520433        1.2687571756       -0.1231141173
 C        -9.2692479186        2.6046912275       -0.6767100247
 O        -9.3206835846        3.6185659571       -0.0090318203
 C        -8.9269214483        2.5762227223       -2.2297692233
 C        -8.3780438760        4.0147267066       -2.8321414929
 O        -8.9629591188        5.0134537786       -2.4446345789
 C        -7.4048411327        3.9508500549       -3.9915459067
 C        -6.9375359839        5.2912597734       -4.4276144188
 C        -5.7611092166        5.9987471923       -3.7531174756
 O        -5.1273510834        5.5680181995       -2.7937954580
 C        -5.4151096921        7.6397126037       -4.0773169549
 C        -6.1649275635        8.3564968233       -2.7931206672
 O        -5.6907092868        9.2353037723       -2.1566835649
 C        -7.6772517307        7.9682063747       -2.6189547020
 C        -8.6607354676        9.2933791330       -2.6960930374
 C       -10.0731606471        9.1093161888       -2.1732115807
 O       -10.5579728337        7.9818793825       -1.9003541602
 C       -11.0525472094       10.2909561145       -2.0360189223
 C       -11.4873006346       10.3800123873       -0.5674247242
 O       -10.9487501443       11.1838143682        0.1920435016
 C       -12.3010315731        9.2861012994       -0.0090871163
 C       -11.8871112279        8.8977173327        1.4789967285
 C       -11.1976449984        7.6139629033        1.6243139619
 O       -11.3583482845        6.7227561721        0.8565190876
 C        -9.9569018394        7.5175166489        2.5890826038
 C        -8.6486415193        7.9356964490        1.7767269329
 O        -8.6793003983        7.6838045693        0.5950505020
 C        -7.4627503640        8.4731156004        2.5039362633
 C       -10.1800591934        8.3452503336        3.9424368251
 C        -9.7928405621        5.9753727735        2.9984171272
 C       -10.4508689585       11.6577605827       -2.4829075986
 C       -12.3225167935        9.9061770236       -3.0409610808
 C        -3.8861021247        7.8632103967       -4.0046274944
 C        -6.0427274430        8.5438823071       -5.3423754967
 C        -7.9057197641        1.4969476606       -2.5686770495
 C       -10.3203623659        2.2567129280       -2.7855046148
 C       -11.9767330329       -0.9330242446        3.1761284505
 C        -9.7786801227       -2.2823296615        2.8193726155
 C       -14.0569520382       -7.1692922981        2.6765869384
 C       -15.3607999774       -4.9840971314        2.8608511330
 H       -11.6083509565       -6.7645215294        3.9325755067
 H       -11.8439788993       -6.4570292510        5.7044778771
 H       -11.1312833639       -5.2659835580        4.7023075225
 H       -12.3660042806       -3.0611259401        2.6350479015
 H       -13.9945676225       -3.0248904740        1.9592576473
 H       -12.9841618368       -2.4922325040       -0.2275387436
 H       -11.8198224160       -3.7247649094        0.0570073661
 H       -10.4489377509        2.1710280382        1.7866126835
 H       -11.4989181049        0.9429741049        0.9590701528
 H        -9.9806445986        0.5807348332       -0.9349222623
 H        -8.5941775290        0.8111963228        0.1282446132
 H        -8.0370443288        3.4534607315       -4.9077459282
 H        -6.4643826221        3.3689562691       -3.7330220947
 H        -7.8688573969        5.9794511150       -4.3725632698
 H        -6.6495533383        5.2852498668       -5.4984666589
 H        -7.7999383430        7.4934165657       -1.6210912905
 H        -8.0301669516        7.3320876984       -3.4205008551
 H        -8.7448378283        9.5314501743       -3.7927990506
 H        -8.2173790496       10.2341137698       -2.2354590246
 H       -12.0916683620        8.4325076872       -0.6812721287
 H       -13.3890254354        9.4671758187       -0.0137239796
 H       -12.7936916938        8.9346668820        2.0114807141
 H       -11.3997158118        9.7009946642        1.9918006668
 H        -7.7482478946        9.3382966562        3.1105985550
 H        -6.6662364085        8.8377083144        1.8360518617
 H        -7.1112356644        7.6973321606        3.2245079388
 H        -9.9576721179        9.3309534494        3.8136206363
 H        -9.5510867743        7.9549905129        4.8229934372
 H       -11.2146929598        8.3255546118        4.2073921753
 H        -9.6835620785        5.6821703091        4.0555355139
 H        -8.7400802232        5.5772109178        2.6127064839
 H       -10.6674162593        5.5399495386        2.5030890324
 H        -9.9989625074       11.5419703623       -3.5106117611
 H        -9.8395543486       11.9254111830       -1.6825232676
 H       -11.1986402539       12.4514733357       -2.5595932978
 H       -12.6267066119        8.8670694331       -3.0488109301
 H       -12.1390279579       10.1482466804       -4.0847622658
 H       -13.1779006375       10.5581620598       -2.7444423689
 H        -3.7094374660        8.8738354229       -3.6475057638
 H        -3.4381869492        7.3573270840       -4.8933921981
 H        -3.5687323324        7.2551476043       -3.0986038967
 H        -5.9494910052        8.0898794867       -6.3953384128
 H        -5.5408149811        9.5636917582       -5.2554973825
 H        -7.0662312376        8.9204622179       -5.1453293982
 H        -8.2097654007        0.5158264036       -2.1542180131
 H        -6.9185939339        1.9567874137       -2.1929528989
 H        -7.9189457644        1.4538853197       -3.6522080411
 H       -11.2013736867        2.7508374989       -2.4082140539
 H       -10.5102365775        1.2124832154       -3.0070907392
 H       -10.3409491146        2.5625920477       -3.7893754434
 H       -11.9609306281        0.1766460186        3.1730358273
 H       -11.9843813760       -1.1955282634        4.2059259706
 H       -12.8317516455       -1.0723560743        2.6291658651
 H       -10.4114923336       -3.1650651350        3.1700135101
 H        -8.9174228420       -1.8473252695        3.3813349305
 H        -9.1598513325       -2.5441244184        1.9295285297
 H       -13.3336800070       -7.5397841627        1.9762566257
 H       -15.0120652329       -7.5301131743        2.2512990045
 H       -13.9136698829       -7.8042054607        3.6199330705
 H       -15.9404850968       -5.3884445945        3.6946479148
 H       -15.7435397411       -5.3173904702        1.9793578256
 H       -15.4896775931       -3.9338612394        3.0317816960
 Na       -9.7938295158        6.0780185381       -0.6074473242
