117

 C       -12.1427238854       -6.4260287262        4.0668160222
 C       -13.5171615970       -5.7861220548        4.4118408452
 O       -13.9002031163       -5.3740667253        5.4515616419
 C       -14.3719932745       -5.7359326967        3.0324176229
 C       -13.3809865619       -5.0292714938        1.9822531401
 O       -12.8955932112       -5.8423602064        1.1207201438
 C       -13.0762160197       -3.6125924862        2.0754664672
 C       -11.5415478544       -3.2603590651        1.3301428951
 C       -11.1695683561       -1.7741066695        1.2280599039
 O       -11.2558847920       -1.0486979882        0.1738007925
 C       -11.0582210837       -0.9197842216        2.5651337049
 C       -10.0202027043        0.2118465142        2.3359348223
 O        -8.8512433326        0.1817386997        2.7138662267
 C       -10.4204533954        1.5606177893        1.5729221805
 C        -9.3334720070        1.6088045015        0.3522484088
 C        -9.4009707161        2.7796544739       -0.6043927233
 O        -9.9276396480        3.8251691270       -0.2389989470
 C        -8.7904084295        2.5767983242       -2.0705762732
 C        -8.1555776309        3.8146671816       -2.7631501320
 O        -8.4249377831        4.9421172978       -2.4226857902
 C        -7.0944742324        3.5160462060       -3.9241126560
 C        -6.5085630466        4.7649040084       -4.7340874101
 C        -5.6315382287        5.5963520416       -3.7844378714
 O        -5.2272756692        5.1114319962       -2.7544898154
 C        -5.3701973622        7.0897558441       -4.3226904880
 C        -6.2323194264        8.0683408360       -3.4435826112
 O        -5.7046118690        9.0270609930       -2.8433534437
 C        -7.8076408600        7.9104298446       -3.4621379302
 C        -8.3078280619        9.0237245019       -2.4553306106
 C        -9.7730456614        9.0748658398       -2.1681587298
 O       -10.3553357235        8.0101017726       -2.1090322871
 C       -10.8708098030       10.3044612661       -2.2073350737
 C       -11.6346941652       10.2208785049       -0.7814671998
 O       -11.7592950170       11.2376317996       -0.1389557792
 C       -12.3456975847        8.9029167436       -0.3052131286
 C       -12.0399899016        8.8426630946        1.2645791351
 C       -10.9954757108        7.7704527414        1.5388791177
 O       -11.1097384663        6.7519795851        0.8694604187
 C        -9.7842240832        7.9755095074        2.6045347131
 C        -8.5018475135        8.2926196957        1.8110591149
 O        -8.2760316864        7.8748846302        0.6453336587
 C        -7.3311440934        9.1001751328        2.4518391277
 C       -10.2208007644        9.1226223013        3.5705908102
 C        -9.5006462520        6.5851596927        3.2629072263
 C       -10.3029865503       11.7712016755       -2.3970456630
 C       -11.8892740543        9.8440864506       -3.3108675058
 C        -3.8883469727        7.2706615513       -4.1132741118
 C        -5.8883630096        7.5007693787       -5.7665338307
 C        -7.7151133910        1.4342726985       -1.9574905177
 C        -9.9164870211        2.0344838834       -2.9156525213
 C       -12.4180653319       -0.3172649640        2.8196132813
 C       -10.6348962584       -1.7641889633        3.8116061242
 C       -14.7122271152       -7.0871275080        2.6872857473
 C       -15.5682449888       -4.8370314424        3.1316930888
 H       -11.6430936282       -6.9464808650        4.9118728582
 H       -11.5476132555       -5.5380509987        3.9042859800
 H       -12.1222760630       -7.0522001897        3.2145701726
 H       -12.9027993064       -3.2276277541        3.0287750557
 H       -13.9439606780       -3.0864492847        1.7203242830
 H       -11.6080183620       -3.8149464543        0.4386158248
 H       -10.9854938578       -3.9296985139        1.9352041089
 H       -10.1272407359        2.4872729890        2.2077032264
 H       -11.4561421731        1.7019772385        1.1759934255
 H        -9.4802766076        0.6320896063       -0.2448194040
 H        -8.3558911248        1.5634010022        0.8710006354
 H        -7.6077755518        2.8792887139       -4.6969424092
 H        -6.2261551994        2.8678272384       -3.3182142411
 H        -7.3757098947        5.3185837735       -5.1312539437
 H        -5.8226053869        4.3333411664       -5.4938563867
 H        -8.1185633554        6.9133521904       -3.1513415294
 H        -8.0596556099        8.0890560505       -4.4903859491
 H        -7.8760486612       10.0204040104       -2.8645494045
 H        -7.7768262372        8.8162861883       -1.4980852830
 H       -12.0058855131        7.9251729156       -0.7520765364
 H       -13.3602474861        9.0844744786       -0.3860713847
 H       -12.8537376980        8.5066698508        1.8455596208
 H       -11.8124653006        9.8452901551        1.5745427301
 H        -7.5565876585        9.9136796993        3.1137953642
 H        -6.7174999533        9.5050525120        1.6420572839
 H        -6.6450372986        8.3083791980        2.8197924124
 H       -10.7372154239        9.9199879800        2.8709087373
 H        -9.4123929912        9.4851397315        4.0613602075
 H       -10.8551911302        8.8179963788        4.4059281098
 H        -8.3697613576        6.3799086550        3.4877155057
 H        -9.9282356511        5.8006321340        2.6590557128
 H        -9.9208798162        6.6291949246        4.3635063650
 H        -9.8442495986       11.7647677239       -3.3691055615
 H        -9.4675549125       12.0220734136       -1.6946517246
 H       -11.1849982748       12.4129417673       -2.3762746195
 H       -12.1754853290        8.7949840427       -3.1698680994
 H       -11.5258181372        9.9691062074       -4.3340930663
 H       -12.8350843478       10.3181780288       -3.1702764641
 H        -3.3413068345        6.5361474949       -4.7934805904
 H        -3.7425733606        7.1987497368       -3.0093454735
 H        -3.6475181237        8.2776888449       -4.4899143406
 H        -5.4783888818        6.9574508061       -6.6775545926
 H        -5.4518185295        8.5135598034       -5.9908763018
 H        -7.0346632764        7.4943333744       -5.8840199975
 H        -8.2224114608        0.6529943197       -1.3607757098
 H        -6.8852043533        1.9326124278       -1.5529665263
 H        -7.2905841304        0.9531764692       -2.8919668987
 H       -10.5622611289        2.7683863417       -3.1992244436
 H       -10.4967367439        1.4387434707       -2.2694587940
 H        -9.6766126367        1.6363604322       -3.8674934573
 H       -12.3817465316        0.2055168523        3.7522599625
 H       -13.0245989907       -1.1760350884        2.8059823229
 H       -12.7831379805        0.3321056119        2.0420372743
 H       -11.0249611376       -1.2519615569        4.7187563564
 H        -9.4630146085       -1.8139373392        3.8349077717
 H       -11.2710355398       -2.7090798467        3.7820176560
 H       -13.9561472964       -7.8367000279        3.0825613114
 H       -14.7294214293       -7.2003483482        1.5714274757
 H       -15.6990586189       -7.4347812127        2.9693116376
 H       -15.9593213269       -4.7625296967        4.0804067458
 H       -16.3684907350       -5.0301845333        2.4167693341
 H       -15.2060638248       -3.9263203447        2.7591319904
 Na       -9.4950804522        6.2204878743       -0.7226807086
