117

 C       -12.4532075280        2.8424740918      -10.9225657742
 C       -12.9578868361        1.7106368317       -9.9480803476
 O       -13.9622996728        1.7270576263       -9.2565250282
 C       -12.0409629687        0.4509919745       -9.9001460887
 C       -11.5898641069        0.2182930042       -8.3711742029
 O       -11.4201021692       -0.9192103567       -7.9361316602
 C       -11.2258571972        1.4391589370       -7.5012356679
 C       -10.2269693997        1.1314234084       -6.2762536021
 C       -10.2841910087        2.3228247283       -5.2705121649
 O       -10.9149798137        3.3602021994       -5.4704328611
 C        -9.5083788111        2.0883069331       -3.8236399358
 C        -8.7112353311        3.3653372689       -3.5170694969
 O        -7.5120169098        3.4674710212       -3.6665843359
 C        -9.4875200633        4.5587875159       -2.9723609867
 C        -8.6339752463        5.7357030368       -2.5750959557
 C        -8.4231142931        5.9041415826       -1.0822063359
 O        -8.4553107531        4.9777159327       -0.2531133816
 C        -8.4130008584        7.3366000196       -0.3850455123
 C        -9.5898012025        7.4733371251        0.6769035410
 O       -10.4012018605        6.6058970427        0.7768083914
 C        -9.6921345694        8.8287501653        1.3110277897
 C       -10.3873775856        8.9174445055        2.6939335175
 C        -9.8687935016        7.7191025755        3.4928140941
 O        -8.6457567764        7.5785890085        3.4627650501
 C       -10.7299407323        6.9645726781        4.4957208968
 C       -10.0576135764        5.6583930099        4.9204120203
 O        -9.7459346927        4.7532727130        4.1383871789
 C        -9.8689971259        5.4434215046        6.4655373602
 C        -9.8165590967        3.9013758381        6.7196384062
 C       -11.1053127979        3.2133811321        6.4255742572
 O       -11.9956111287        3.8359379387        5.8329738103
 C       -11.3096363269        1.6081790891        6.6103279166
 C       -10.0658149767        1.1506682778        5.7199458144
 O        -8.9519213618        1.2968683852        6.0893730134
 C       -10.1953641369        0.8185534561        4.1674513230
 C        -8.8216204629        0.5362040294        3.5901705027
 C        -8.3168017803        1.7799829239        2.7642075123
 O        -9.1546576681        2.5309784237        2.3042763671
 C        -6.8340542791        2.0721677270        2.4768873508
 C        -6.4496512013        3.2303677462        3.4297568424
 O        -6.7787713480        4.3496353419        3.2116976459
 C        -5.5650856335        2.9998296097        4.7329538121
 C        -5.8964551460        0.8272820016        2.6486912513
 C        -6.8044643516        2.5698365206        1.0295736171
 C       -11.0608425376        1.1018754739        8.0387264336
 C       -12.6930830825        1.1730296509        5.9490377236
 C       -11.1009163931        8.0624614038        5.4986558284
 C       -12.1177617463        6.5686057011        3.7967282079
 C        -7.0684279693        7.3629030925        0.5147404155
 C        -8.4806601164        8.6691431801       -1.3257186652
 C       -10.6783977422        1.8808672056       -2.8032742143
 C        -8.7045636404        0.8154361409       -3.7748297600
 C       -12.7823053640       -0.8620296573      -10.4612739212
 C       -10.6272168853        0.6873522889      -10.6442063047
 H       -13.1917732629        3.6158896482      -10.7084159996
 H       -12.1426383786        2.6505378638      -12.0165154730
 H       -11.5736545857        3.3119624718      -10.4096618467
 H       -12.1627920657        1.7791542731       -7.0513522022
 H       -10.8032767007        2.3563135139       -7.9366306282
 H        -9.1968218644        1.1594259766       -6.6871226357
 H       -10.3984417491        0.1627580258       -5.7313797121
 H       -10.2032447283        4.4117993553       -2.1556119446
 H       -10.1591533454        4.9432401797       -3.8739825317
 H        -9.0172949519        6.6470038660       -2.9907781838
 H        -7.6103755046        5.8774028391       -2.9759015053
 H       -10.2536007084        9.4706085319        0.6028721530
 H        -8.6667834033        9.1613543753        1.4523797627
 H       -11.4436191332        8.9473163246        2.3891079941
 H       -10.0119603137        9.8388811654        3.1440527542
 H       -10.7181929403        5.8863509938        7.0675707528
 H        -8.9035484619        5.8721094916        6.8199625152
 H        -9.4768668721        3.7832342728        7.7776853011
 H        -9.0644145880        3.4279219060        6.0117950011
 H       -10.6622890644        1.6076606815        3.5493111058
 H       -10.8364882240       -0.0526272292        4.0825507490
 H        -8.6385914095       -0.3637261655        2.9368727767
 H        -8.0925361117        0.4105572383        4.4681665101
 H        -5.1215549030        3.9969657118        4.8677029138
 H        -4.7206882955        2.2273352752        4.7434180522
 H        -6.2454859861        2.9089601105        5.5654008386
 H        -6.1112320297       -0.0472392479        1.9621699917
 H        -5.8193541041        0.5397081275        3.7060819587
 H        -4.9627750624        1.0209859660        2.2711936875
 H        -6.8219187754        3.6455219891        0.9539392305
 H        -7.4980538631        2.0054115920        0.4815270746
 H        -5.7829284954        2.3277790594        0.6094802287
 H       -10.3110241641        1.6199353938        8.6174404543
 H       -10.8452566897       -0.0060930581        7.9319187145
 H       -11.9724518701        1.3149685052        8.6986126444
 H       -12.2845311266        0.4730409819        5.2577231363
 H       -13.3168671760        1.9496048796        5.6703296077
 H       -13.2554093552        0.6466230559        6.6847208320
 H       -11.5558682945        8.9378213304        4.9934207892
 H       -10.2640549193        8.5472257232        5.9929887699
 H       -11.8452224131        7.5752809711        6.1792103222
 H       -11.8252468188        6.0735710942        2.8521554357
 H       -12.6655561206        7.4455094877        3.4981223114
 H       -12.6322741692        5.8766146951        4.4723041830
 H        -7.0629936383        8.1617934371        1.2000007035
 H        -6.2700083149        7.3913971223       -0.1366866466
 H        -6.9516371543        6.3539398874        0.9891850104
 H        -8.1279882286        8.6238498082       -2.2898718260
 H        -7.9234050180        9.3493140463       -0.7809345350
 H        -9.5490667019        8.9110602925       -1.4379666905
 H       -11.1763334387        0.8852039273       -2.9531282751
 H       -11.3581243074        2.7151280639       -2.8576830954
 H       -10.2261894414        1.8225153212       -1.8466116180
 H        -9.3459846849       -0.0228021987       -3.6405001205
 H        -8.0063756358        0.9570395775       -2.9942353339
 H        -8.0694494546        0.5581597921       -4.6116659832
 H       -13.8572484917       -0.5919109744      -10.3694941655
 H       -12.4779104354       -1.7622286840       -9.9469030240
 H       -12.6257333755       -1.0330551420      -11.4654759632
 H       -10.0450241891        1.5125301112      -10.2849673790
 H       -10.7557722418        0.9215250857      -11.7062354137
 H        -9.9735339708       -0.1846508572      -10.6914847402
 Na       -8.9793026176        4.8262808196        2.0267440861
