117

 C       -12.2140554985       -6.7059990555        4.1201282368
 C       -13.4883780976       -5.7593678617        4.1897596650
 O       -13.8093119063       -5.2348679424        5.2103542515
 C       -14.4513421057       -5.6251737540        2.9477834774
 C       -13.4605333629       -5.0756697756        1.8200831082
 O       -12.9923207241       -5.8741164549        1.0018110998
 C       -13.2303174541       -3.6148707048        1.7931577131
 C       -11.7049798575       -3.2164721441        2.2044337774
 C       -11.5306149142       -1.6701512639        1.8951323464
 O       -11.4791309570       -1.2758465347        0.7349249739
 C       -11.4152811833       -0.5931399738        3.0267324359
 C       -10.3530193204        0.3642912610        2.5612191677
 O        -9.2215964995        0.1295595557        2.9818000353
 C       -10.4460306696        1.6456381072        1.5339388039
 C        -9.2878964975        1.6257210360        0.5316177728
 C        -9.3276983569        2.7309464012       -0.5491620608
 O        -9.8426763068        3.7858833249       -0.3650308133
 C        -8.7435801166        2.2634728035       -2.0208265030
 C        -7.9028802948        3.4787760028       -2.7121269211
 O        -7.9104364359        4.6092675279       -2.2722320482
 C        -7.0253266114        3.3207534703       -4.0845358360
 C        -6.6962942507        4.6977390304       -4.7311962444
 C        -5.7415157643        5.5502834274       -3.8561748971
 O        -5.3241713653        5.1498615571       -2.7875174757
 C        -5.4451241880        6.9437424857       -4.5053835244
 C        -6.1759667387        8.2073269820       -3.7666707127
 O        -5.4955380645        9.0592998799       -3.1723541790
 C        -7.7055068641        8.2078027051       -3.5708627682
 C        -8.3028636279        9.1323705498       -2.4152190654
 C        -9.8065920654        8.9312174769       -2.2537908278
 O       -10.2477962915        7.7960040771       -1.9680605236
 C       -10.7792976425       10.1589393449       -2.3905094770
 C       -11.6642719509       10.2358097710       -0.9874072304
 O       -11.4861330350       11.1963899839       -0.3292820215
 C       -12.4818827440        8.9839853854       -0.3830378483
 C       -12.1578711539        8.6874994939        1.1385002021
 C       -10.8679356149        7.9071494329        1.4093051026
 O       -10.7132685010        6.8297905495        0.8605492349
 C        -9.7956066779        8.1992539255        2.5106357762
 C        -8.5323439721        8.4554744408        1.6567805539
 O        -8.3595347695        7.7464410952        0.6214820565
 C        -7.4203976798        9.4780023435        2.0805759506
 C       -10.0884115197        9.4550658386        3.4649819346
 C        -9.5049197481        6.9555403640        3.3820615763
 C       -10.1091226225       11.5703972037       -2.5877587643
 C       -11.8116228095        9.7754186441       -3.4955556562
 C        -3.9738419944        7.1270316576       -4.1842139114
 C        -5.5616066146        7.0212074943       -6.0213196199
 C        -7.5960564085        1.1927401288       -1.7486331650
 C        -9.8202589089        1.8809499810       -2.9653238413
 C       -12.6880931383        0.1937068111        3.2850404313
 C       -10.9877913780       -1.0595708973        4.4276369362
 C       -15.0249063304       -6.9372155350        2.4727600775
 C       -15.5197903587       -4.6428041143        3.2964742646
 H       -11.3419435277       -6.3413300151        4.6849002223
 H       -11.7550971269       -6.8971414521        3.0883552873
 H       -12.6475285978       -7.6142448438        4.4852008314
 H       -13.8593580042       -3.0198908996        2.4093564045
 H       -13.1996347123       -3.0072746493        0.8279082411
 H       -11.1542276452       -3.9626241760        1.5730933857
 H       -11.4473828085       -3.3374410060        3.2915147961
 H       -10.4905615542        2.6112342358        2.0046835519
 H       -11.2403201557        1.6135867642        0.8431967269
 H        -9.3863766560        0.6292721587        0.0910736262
 H        -8.3417347236        1.7544970271        1.0710017550
 H        -7.6107468111        2.6546510229       -4.6945525287
 H        -6.0683352953        2.6060009248       -3.8600767316
 H        -7.6041929521        5.3112083432       -4.7254666130
 H        -6.2511599488        4.5223615100       -5.7034300053
 H        -7.9109337833        7.0982186733       -3.3755590690
 H        -8.1125537484        8.3690015718       -4.6015743194
 H        -8.0013684531       10.1487624000       -2.7022180216
 H        -7.9095933989        8.8767736568       -1.5097638179
 H       -11.9088811729        8.0334781453       -0.8074303090
 H       -13.5391071414        8.9458730649       -0.4626627440
 H       -12.9260295830        7.9414745352        1.4509827845
 H       -12.2239341560        9.6481111378        1.7945202961
 H        -7.7323624185       10.4036239788        1.6124809101
 H        -6.4417258578        9.0918859485        1.7437293169
 H        -7.1001686600        9.4455545414        3.1958710366
 H       -10.7355699194       10.1412824403        2.8300866082
 H        -9.2769543627        9.9280558225        3.8036456753
 H       -10.6455213224        9.1496197029        4.2756780704
 H        -9.2238775980        7.2716379002        4.3559660251
 H        -8.8294812663        6.4103733663        2.8859866576
 H       -10.3251405254        6.2515744996        3.4553658724
 H        -9.6059783109       11.6784097651       -3.5770435518
 H        -9.2602817339       11.4704583644       -1.9153468535
 H       -10.9015688386       12.2231996288       -2.2769292119
 H       -12.4539489531        8.9462145515       -3.1936318136
 H       -11.4017933825        9.6289208950       -4.5005828329
 H       -12.5737733958       10.5744751625       -3.6594991502
 H        -3.7840894711        8.1707406374       -4.2223075690
 H        -3.4172772550        6.5177580458       -4.8517699781
 H        -3.8384107264        6.8956865484       -3.1183165006
 H        -4.9316331046        6.3458879449       -6.4896805842
 H        -5.2792870182        7.9195948354       -6.5131452567
 H        -6.4940943744        6.7326579312       -6.4201284063
 H        -8.0110054034        0.3630343892       -1.2045748217
 H        -6.8527663312        1.7979920286       -1.2473242956
 H        -7.1501528008        0.8457356246       -2.6492436992
 H       -10.6970313618        2.5550854009       -3.1029214933
 H       -10.3430528844        0.8858599563       -2.6798822877
 H        -9.2037325301        1.5942374597       -3.9633946933
 H       -12.2571832879        0.9021146167        4.0689730937
 H       -13.4978083896       -0.4583023829        3.5053304531
 H       -12.9839412482        0.7820018637        2.3958183882
 H       -10.4997630682       -0.2162169319        4.8317096833
 H       -10.0587828174       -1.5866701596        4.2532076006
 H       -11.7687584637       -1.3381465344        5.0740405239
 H       -14.2398047368       -7.4802352135        1.8563544921
 H       -15.9186078895       -6.8011388093        1.9684454505
 H       -15.2528340037       -7.5672854470        3.2591589545
 H       -15.3188455513       -4.3787937521        4.3615877353
 H       -16.5862877778       -5.0511589469        3.3528538413
 H       -15.5729536087       -3.7878901966        2.5286020914
 Na       -9.1684323154        5.8413285660       -0.8639170800
