117

 C       -12.6654351995       -7.1025163933        4.1327530883
 C       -13.4285043636       -5.7784470902        4.0622400326
 O       -13.2051300110       -4.8911648597        4.8728835324
 C       -14.5292571731       -5.5362281497        2.9365475685
 C       -13.5135991488       -4.8843617154        1.8603364562
 O       -12.9517596987       -5.7051105669        1.1813045757
 C       -13.5132279475       -3.3812899067        1.7068980702
 C       -13.2296957823       -2.4254326257        2.9920583532
 C       -12.2101246684       -1.2667375358        2.5439503539
 O       -11.6688113270       -1.4024680534        1.4360015714
 C       -11.7491874919        0.0789968154        3.4067237149
 C       -10.4388838640        0.6751318899        2.8442114501
 O        -9.3821556701        0.6823533969        3.4203178764
 C       -10.5553202501        1.3603165791        1.5182953335
 C        -9.3835877643        1.0248966154        0.4857925579
 C        -9.0877534841        2.2523791678       -0.3403953942
 O        -9.6703779449        3.2751061085        0.0751147437
 C        -8.4397700004        2.1350181179       -1.8009637517
 C        -7.8248399310        3.4550589240       -2.4400253645
 O        -7.8933018099        4.5640647531       -1.9668628767
 C        -7.0893334601        3.2419485081       -3.7936842433
 C        -6.8548186129        4.5461923312       -4.4853225243
 C        -5.6604124679        5.3870102414       -3.8701944969
 O        -5.2185915319        5.1902192391       -2.7879973079
 C        -5.2540863086        6.8795951709       -4.7074280071
 C        -5.9925970269        8.0310111327       -3.8473091136
 O        -5.5113670305        9.0629025134       -3.6036905117
 C        -7.3713659309        7.6083885836       -3.3720392036
 C        -8.1261830744        8.7862686035       -2.7541915360
 C        -9.6456869901        8.5834922299       -2.4395574410
 O        -9.9388110286        7.4859452014       -2.0290212654
 C       -10.6523216219        9.8021819183       -2.7224188568
 C       -11.1737809542        9.9662410401       -1.1781359136
 O       -10.3938870817       10.5629989114       -0.4221269835
 C       -12.3964560981        9.1841021746       -0.5835161160
 C       -12.3395811138        8.6781750342        0.8783503992
 C       -10.9214450521        7.8355401409        1.1652371340
 O       -10.8498849762        6.6845744638        0.7940953597
 C        -9.6980808553        8.5237861498        2.0997632724
 C        -8.3389720814        8.6978042804        1.2147815026
 O        -7.9973070238        7.7095327202        0.6329414497
 C        -7.5033611851        9.9569440902        1.3936747560
 C       -10.2447983159        9.7505661851        2.7962364528
 C        -9.4960447283        7.3887472231        3.0863038336
 C       -10.1332541996       11.2144489996       -3.1179009438
 C       -11.7396142088        9.4168313926       -3.6436410854
 C        -3.7412238613        7.0048270092       -4.6510325895
 C        -5.8906276783        6.8356244829       -6.1090252582
 C        -7.3068611183        1.1038926155       -1.6580284226
 C        -9.6970244153        1.6165493620       -2.7290066655
 C       -12.8441908039        1.1911647509        3.3827899252
 C       -11.3096948292       -0.3077720817        5.0055436158
 C       -15.2115517940       -6.6863269215        2.1375602509
 C       -15.6449339965       -4.5658050040        3.3828314860
 H       -11.7642110642       -6.9338401176        3.5383231346
 H       -13.3017822533       -7.9351027648        3.7208370718
 H       -12.4099115030       -7.4157603603        5.1596108942
 H       -14.4500355698       -3.1603249003        1.0751676460
 H       -12.6331064444       -3.1322426497        1.1519104123
 H       -12.7468217059       -2.9800361992        3.8192525299
 H       -14.1701145127       -1.9094025525        3.2970000628
 H       -10.4889679723        2.4417497929        1.6134878958
 H       -11.5211735711        1.0931033857        1.1820485139
 H        -9.7541975314        0.1459124887       -0.1402831251
 H        -8.6551841462        0.7324959293        1.2154999068
 H        -7.7557735040        2.4103226119       -4.4058942319
 H        -6.3170175948        2.4875998452       -3.5663970507
 H        -7.7977390601        5.1197725528       -4.4040121402
 H        -6.6733944145        4.4682090490       -5.5705627032
 H        -7.2789009536        6.7058545227       -2.6844625382
 H        -7.9616417522        7.1960637966       -4.2223927808
 H        -7.9240051934        9.6679891951       -3.3239447256
 H        -7.7333707568        8.9532912035       -1.7557333643
 H       -12.6612498640        8.4021494994       -1.2096232007
 H       -13.3214758643        9.8670048129       -0.6059636694
 H       -13.1656232171        7.9003191119        1.0647421707
 H       -12.5241590999        9.5961512072        1.4812973848
 H        -8.1847694141       10.8630039313        1.2251701400
 H        -6.5796741969        9.7681718883        0.8232075637
 H        -7.1514315519        9.9522268137        2.4124152754
 H       -10.6174934496       10.3737548940        2.1557013971
 H        -9.3323318807       10.4030282922        3.0448409700
 H       -10.9011278247        9.5308012723        3.5755923363
 H        -8.4741603200        7.3150350249        3.2408298577
 H        -9.8616861226        6.3640485342        2.7325775082
 H       -10.0077008883        7.5345107594        3.9424013648
 H       -10.9353915383       11.8874922794       -2.9894562762
 H        -9.8866581378       11.0754906561       -4.1668566065
 H        -9.2699400701       11.3341387361       -2.4541526509
 H       -11.5266992211        8.4242297949       -4.0754620378
 H       -12.0089093599       10.0549050645       -4.4865263143
 H       -12.7098413849        9.3722593762       -3.1970527557
 H        -3.3795683092        6.0575757743       -4.2852773731
 H        -3.5247793733        7.8380244374       -3.9699912377
 H        -3.2098758250        7.0558451409       -5.5273992378
 H        -5.4254241398        6.2355894631       -6.8094810649
 H        -6.0587383704        7.7107432543       -6.6160411404
 H        -6.8822759592        6.4532779658       -6.1397029897
 H        -7.7674065052        0.2215866887       -1.3640463437
 H        -6.6790463888        1.3372593186       -0.8331469658
 H        -6.8746040751        0.9285913153       -2.6166386337
 H       -10.4678003864        2.4688458685       -2.4659259991
 H       -10.0364064378        0.5920227589       -2.5277283554
 H        -9.5034960394        1.5046591620       -3.8411741598
 H       -12.6460507039        1.9165956321        4.1383302352
 H       -13.7479404731        0.6205331776        3.7812459902
 H       -12.9542218329        1.5896952408        2.3325627377
 H       -11.0771322160        0.6570957951        5.4239030267
 H       -10.5103766910       -1.0130191034        5.0400603820
 H       -12.3010867427       -0.5545982554        5.3672783235
 H       -14.6178973136       -7.4835277567        2.0656793322
 H       -15.3540549853       -6.3280864893        1.1016741176
 H       -16.1478108978       -6.9056643754        2.6408651287
 H       -15.6671059014       -3.6919093766        2.6525353254
 H       -15.6251603353       -4.2922174189        4.4845244952
 H       -16.6374306693       -4.9506805894        3.0899885925
 Na       -9.1201118077        5.7738479344       -0.4595793013
