117

 C       -12.7592467617       -7.1654723125        4.1224516106
 C       -13.5045211087       -5.7796227310        4.0893497119
 O       -13.0742048182       -4.8798189446        4.8565485402
 C       -14.6786099503       -5.4372248724        2.9308261209
 C       -13.5267896304       -4.7932198416        1.9140124976
 O       -12.9245349684       -5.5823118184        1.2908277991
 C       -13.5359709965       -3.1562421347        1.7490203629
 C       -13.3214496754       -2.1380188007        2.8358026968
 C       -12.1939318407       -1.1257488740        2.5944021733
 O       -11.5670263695       -1.2561299733        1.6259344635
 C       -11.8743744889        0.0607354954        3.6217991524
 C       -10.5697438219        0.6052101527        2.9253610054
 O        -9.4897344681        0.6856429270        3.5168477115
 C       -10.7285933295        1.3120300983        1.4806520614
 C        -9.3478235423        1.1804330504        0.5943638756
 C        -9.2377776101        2.4200494028       -0.3718526567
 O        -9.3999601052        3.5235893314        0.1203204074
 C        -8.6042727801        2.1145455125       -1.7468751178
 C        -7.8215628471        3.3821753365       -2.4111869909
 O        -7.8815007059        4.5244234968       -2.0296056923
 C        -6.9598393055        3.2028658809       -3.7077925226
 C        -6.7651731899        4.5319049694       -4.4883132463
 C        -5.6167448036        5.4538340503       -3.9437649898
 O        -5.1222218011        5.1135357229       -2.8500454272
 C        -5.1919436226        6.6838151916       -4.6667608505
 C        -5.9673268962        7.8277300675       -3.8545940119
 O        -5.5143955109        8.9636988921       -3.7103753911
 C        -7.3298769959        7.4932386401       -3.2420959738
 C        -8.0523185506        8.8007448633       -2.8032363128
 C        -9.5630862888        8.5786925376       -2.5448992715
 O       -10.0265301048        7.5887467339       -2.0318379079
 C       -10.6734650990        9.7305520865       -2.7044257641
 C       -11.0252926524        9.8556754094       -1.0617747951
 O       -10.1759173339       10.2678941181       -0.3516085392
 C       -12.2772114946        9.1999940025       -0.6663876280
 C       -12.1933682353        8.7920137475        0.7930555872
 C       -10.9680276040        7.9672434475        1.1341927399
 O       -10.8813867630        6.8198379714        0.6812998765
 C        -9.8379819231        8.5124262306        1.9998786180
 C        -8.5266007271        8.5475072635        1.1269088402
 O        -8.0916070749        7.6461667344        0.4688434875
 C        -7.7602217595        9.8739722432        1.2368755398
 C       -10.2649546196        9.8268340928        2.7014645797
 C        -9.1951226794        7.5796729972        3.2182392203
 C       -10.2435505570       11.2099494835       -3.2174601855
 C       -11.7836376593        9.2356414801       -3.7290700700
 C        -3.6809722255        7.0308440136       -4.8134599726
 C        -5.8358474429        6.8299045362       -6.1196205965
 C        -7.3633407223        1.0521072624       -1.6364488600
 C        -9.5466538538        1.5276921459       -2.6946941667
 C       -12.9329127145        1.1719340251        3.5069015461
 C       -11.6170899934       -0.3812569777        5.0476022349
 C       -15.1798894249       -6.6463898834        2.1615854776
 C       -15.7583048441       -4.5882555453        3.4849295166
 H       -12.1041647755       -7.1447365125        3.3083127090
 H       -13.5404074951       -8.0663023418        4.0919427339
 H       -12.1909198442       -7.3343728409        5.0171652135
 H       -14.4609173886       -3.0785958049        1.2028980917
 H       -12.7288793547       -3.0151182540        1.0552809304
 H       -13.2119842887       -2.6806244822        3.7110755735
 H       -14.1815348522       -1.5147794582        2.8458503208
 H       -10.7343544171        2.4280932212        1.5555065540
 H       -11.6671350096        0.9466563147        0.9394383288
 H        -9.4869898853        0.2319309819        0.0642915331
 H        -8.5330817052        1.1411976322        1.4112213132
 H        -7.3578413185        2.3712962593       -4.3230899185
 H        -6.0990605881        2.6325506581       -3.3772664959
 H        -7.7570578928        5.0901182037       -4.6412926442
 H        -6.4460397481        4.3277935405       -5.5528263561
 H        -7.1344529787        6.8220779961       -2.4097039588
 H        -8.0301851741        6.9214859794       -3.8766568424
 H        -7.9648213690        9.5972264041       -3.5367731984
 H        -7.6191439375        9.1987896525       -1.7811926662
 H       -12.5845243777        8.4494757792       -1.3203656469
 H       -13.1123552910        9.9105976181       -0.7619297070
 H       -13.0036939418        8.0624351465        1.0293634841
 H       -12.3318852575        9.6961124130        1.3201202073
 H        -8.4416811925       10.6200411518        1.5344499685
 H        -7.1282365768        9.9724620679        0.4159644548
 H        -7.0257361897        9.6200362217        2.1409946254
 H       -10.1547063234       10.8129010578        2.0535843350
 H        -9.4392350688       10.0778875281        3.3263908890
 H       -11.2261720860        9.7771027375        3.2435708480
 H        -8.1152684386        7.6785467283        3.2304316412
 H        -9.4592125279        6.4902050947        3.0759718478
 H        -9.7624355521        7.8772744060        4.1611136278
 H       -11.2033500874       11.6436816213       -3.6693475302
 H        -9.4985941559       11.0333589243       -3.9155503053
 H        -9.8493703696       11.6702467150       -2.3407743328
 H       -11.3695047297        8.3981745668       -4.2906887564
 H       -12.0311879152        9.9277480560       -4.5328385191
 H       -12.8283902888        8.9815213971       -3.4435955553
 H        -3.0613482583        6.2390612552       -5.1345397057
 H        -3.2720996511        7.5803345206       -3.9922121254
 H        -3.6837162745        7.5743179075       -5.7711789755
 H        -5.6261619717        6.1118392399       -6.9369984187
 H        -5.5801323999        7.8301839347       -6.6081238053
 H        -6.8578046925        6.9306214489       -6.2363944161
 H        -7.4979574381        0.2130436389       -0.9662625674
 H        -6.4067067861        1.5441577243       -1.2267082876
 H        -7.2996492936        0.7116840236       -2.6441220518
 H       -10.5450628208        1.8808323146       -2.5202496056
 H        -9.4973189392        0.5228403111       -2.4463424780
 H        -9.3056129725        1.4727832556       -3.7840100810
 H       -12.5499226018        1.8567512102        4.2786011653
 H       -13.9570856076        0.9621906036        3.7773750330
 H       -12.7692059690        1.5783021722        2.5624086206
 H       -10.9242325848        0.4235602443        5.4598878488
 H       -11.1605367339       -1.4324659238        5.0281369179
 H       -12.5894832195       -0.3096815649        5.5492212953
 H       -14.2548570184       -7.3730290856        2.1161396875
 H       -15.3240279617       -6.3729501982        1.1788045578
 H       -16.0734526459       -7.0313352823        2.6802047921
 H       -16.0957392677       -3.9895274579        2.5674477603
 H       -15.4492530881       -4.0065479075        4.3712047518
 H       -16.7342768499       -5.1496917760        3.6835292991
 Na       -9.0388271086        5.5223421149       -0.4168971180
