117

 C       -13.0145924386       -7.1825293717        4.0835139737
 C       -13.6163512171       -5.7799854710        4.1367303933
 O       -13.1302026248       -4.8917815024        4.7640436871
 C       -14.5788913606       -5.3932152368        3.0191644348
 C       -13.6788871190       -4.5439277880        2.0056962483
 O       -12.7760683210       -5.1484703954        1.3746626878
 C       -13.5640940385       -3.0618849257        1.6361195578
 C       -13.5217602367       -2.0166357778        2.8493845433
 C       -12.2657022349       -1.0971040721        2.5772050431
 O       -11.4055007806       -1.2396481353        1.7179129450
 C       -11.9292255642        0.1199362561        3.6337992923
 C       -10.5927758001        0.7033527054        2.9430609517
 O        -9.5886499931        0.6659354110        3.5838482030
 C       -10.8028619952        1.3694064734        1.5555056652
 C        -9.4443673857        1.3648701821        0.7797513544
 C        -9.0639265255        2.4799217529       -0.2309529324
 O        -9.2335850379        3.5951939232        0.1216223386
 C        -8.4816403051        2.0796612177       -1.7598401745
 C        -7.8339000756        3.3783919600       -2.4955774189
 O        -7.9516701084        4.5049223023       -2.0250717686
 C        -6.8381065073        3.1520160874       -3.6683759205
 C        -6.6015590862        4.3077362882       -4.5677845835
 C        -5.4964201813        5.2940173350       -4.0014890447
 O        -4.9298623065        5.0553692167       -2.9713706899
 C        -5.3143183384        6.6785151634       -4.6855780959
 C        -5.9468650085        7.7678082534       -3.7906550026
 O        -5.4060011115        8.8753268476       -3.8792382103
 C        -7.3578605740        7.5143395922       -3.0666124688
 C        -8.0971794939        8.8564774711       -2.8831983751
 C        -9.5040939030        8.5944562041       -2.5891324648
 O        -9.9838797388        7.5351489232       -2.1125726424
 C       -10.5988842934        9.6859946276       -2.7309286476
 C       -10.9121700977        9.7031545419       -1.2236259133
 O       -10.0521251003       10.0369254285       -0.4485125580
 C       -12.2138435554        9.1603778621       -0.7045476391
 C       -12.1688471205        8.8688670269        0.8810397730
 C       -11.0702073117        7.8826286265        1.1902440014
 O       -10.8744271015        6.8624337087        0.5112351365
 C        -9.8434035493        8.4798513660        2.0485766336
 C        -8.6815098206        8.5661378445        1.0158177468
 O        -8.3300552921        7.5992286729        0.3007344976
 C        -7.7381329386        9.8659312258        0.9949520775
 C       -10.1688393894        9.9101204710        2.6652245222
 C        -9.1551030987        7.6884049859        3.2427654416
 C       -10.1571828261       11.1464064983       -3.2552288802
 C       -11.7375318434        9.0483256916       -3.6129948585
 C        -3.7288596452        6.9876324993       -4.8515931626
 C        -5.8754756383        6.7610170447       -6.1141156686
 C        -7.3150650675        1.0494497808       -1.5595718997
 C        -9.5843767387        1.4337128741       -2.6894973867
 C       -13.1500526917        1.1451609749        3.6682534187
 C       -11.9168484232       -0.5095683703        5.0558694695
 C       -15.0904698707       -6.7472099978        2.3204531128
 C       -15.7335451535       -4.4931556264        3.6189656053
 H       -12.6833610725       -7.3653676924        3.0274665870
 H       -13.6393478579       -7.8620260833        4.4638023822
 H       -12.1088805204       -7.1844976646        4.7030611644
 H       -14.3961346517       -2.9599444976        1.0202528319
 H       -12.5764809475       -3.1121210808        0.9893703791
 H       -13.4541153671       -2.5950364925        3.7353201755
 H       -14.3713202103       -1.4225515587        2.7779658622
 H       -11.1314454746        2.4534768467        1.5177280091
 H       -11.5292126241        0.7688225610        0.9155936111
 H        -9.5605474981        0.4170980043        0.3396519014
 H        -8.5564515193        1.3594999609        1.5327833564
 H        -6.9186655417        2.2539470455       -4.0599581874
 H        -5.9487070224        2.9085070016       -3.0669953433
 H        -7.4451200825        5.0069940981       -4.7527044227
 H        -6.3604418714        3.9626055985       -5.5984627488
 H        -7.2655069410        6.9967317814       -2.1481116302
 H        -8.0100300503        6.8800840453       -3.6534706395
 H        -8.1926944021        9.5291876847       -3.8162004138
 H        -7.6243239708        9.4618503784       -2.0585947110
 H       -12.3869356428        8.0916091850       -1.1752122567
 H       -13.0456663442        9.6473040418       -1.0821355789
 H       -13.0266506135        8.3900769503        1.1814369617
 H       -12.1079263431        9.8126712974        1.3822043600
 H        -8.2587932719       10.6954012879        1.4153722466
 H        -7.3331785824       10.0454427572       -0.0154614248
 H        -6.8965152770        9.6493881710        1.6201648536
 H       -10.0812172085       10.7571385584        1.8786586793
 H        -9.5569007952       10.3020585165        3.4497208282
 H       -11.2913178938        9.8180413765        3.0443691237
 H        -8.0543791413        8.0761651780        3.4355894681
 H        -9.0608951429        6.6805946333        2.9211514112
 H        -9.9424877172        7.6810561853        4.1007997494
 H       -10.9604781337       11.3893041026       -3.9367838324
 H        -9.1605248326       11.0470559730       -3.6987953528
 H       -10.0687177596       11.7463166240       -2.3653526905
 H       -11.3427650529        8.2561255597       -4.2391105489
 H       -12.2356550109        9.6592902469       -4.3693942092
 H       -12.6231677910        8.6575746230       -3.0836446058
 H        -3.2916505372        6.5172619467       -5.7558724109
 H        -3.1663471037        6.7183757939       -3.9479542191
 H        -3.6308573442        8.0391112746       -5.2387056394
 H        -5.6735311937        5.8360965311       -6.7408502651
 H        -5.4184313147        7.5708598100       -6.7476614777
 H        -6.9247446259        7.0057850599       -6.4420762251
 H        -7.6251375100        0.4296089214       -0.6237261734
 H        -6.3538373876        1.4850909153       -1.2149906764
 H        -7.2222024205        0.3541279200       -2.4867847977
 H       -10.4908793679        1.8416452698       -2.6396504526
 H        -9.6114671166        0.3484646401       -2.3727337205
 H        -9.2529456997        1.4122870765       -3.6684676033
 H       -12.6776153191        1.8675336437        4.3522014845
 H       -14.0011857258        0.8472765748        4.1331350475
 H       -13.2830757759        1.5766677296        2.7187646420
 H       -11.0167292734       -0.0217381832        5.5800872912
 H       -11.7237608432       -1.6664405994        4.8735679010
 H       -12.8972320217       -0.2855834245        5.6329183467
 H       -14.3093614983       -7.3541027564        1.7447885993
 H       -15.7952442752       -6.3523636566        1.5593395837
 H       -15.6590163189       -7.2420544207        3.1322728659
 H       -16.5076143564       -4.3529041262        2.9000821704
 H       -15.3144537134       -3.5954476935        4.0749754193
 H       -16.2283475431       -5.0392989247        4.4512765602
 Na       -9.0382749499        5.6480405755       -0.3483527822
