117

 C       -13.0850546847       -7.0804492163        4.3599804166
 C       -13.5494484582       -5.6288967099        4.2602651211
 O       -13.1416564682       -4.6988785028        4.9554796092
 C       -14.4642171624       -5.1311703616        3.1362554043
 C       -13.6546278658       -4.2469049764        2.0484596940
 O       -12.6999127601       -4.6936460003        1.4425499543
 C       -14.3076244467       -2.8803690953        1.6927806185
 C       -13.8632746785       -1.9017003697        2.6666441035
 C       -12.3866803036       -1.0976340737        2.4489719159
 O       -11.5847810754       -1.6476155258        1.7640776762
 C       -12.1849906070        0.0665195612        3.4859545262
 C       -10.7966369364        0.8961821361        3.0456719625
 O        -9.8371326669        0.8460795062        3.7827617686
 C       -10.6932842811        1.8065397149        1.8681898028
 C        -9.4405639005        1.4095344221        0.8658494950
 C        -8.9606972880        2.5882100107        0.0400295671
 O        -9.1813049991        3.7052899524        0.3878091216
 C        -8.2284087254        2.1313082497       -1.3389281481
 C        -7.6899539203        3.2488180342       -2.2562463325
 O        -8.2756361598        4.3377132100       -2.2503865164
 C        -6.6617841989        2.9174381255       -3.3315426511
 C        -6.4631299259        4.0173735163       -4.3850518994
 C        -5.2900367323        4.9858889610       -3.9924951843
 O        -4.5164225262        4.6943543484       -3.1036450537
 C        -5.2117261070        6.3563655848       -4.6770249915
 C        -5.6769382864        7.6216416260       -3.8425769965
 O        -5.2671543176        8.7438404410       -4.1807293672
 C        -7.0039899399        7.5131535789       -3.0011182713
 C        -8.0728489034        8.5850165217       -3.2735548564
 C        -9.4541767355        8.1806834520       -2.9383486281
 O        -9.7686616028        7.0159040890       -2.6633965606
 C       -10.5867412942        9.3188103601       -2.7616328233
 C       -11.0099016579        9.5052343984       -1.3050087033
 O       -10.3744864275       10.2164748507       -0.6014327030
 C       -12.4276585921        8.9083331335       -0.7998964447
 C       -12.2168723088        8.9431610719        0.7643382060
 C       -10.9627525575        8.1691067026        1.1810733125
 O       -10.9678915035        6.9321626132        1.0254840869
 C        -9.6436983889        8.7109851833        1.8898686763
 C        -8.4044314076        8.8381149986        0.8539571406
 O        -8.1261766599        7.9089440669        0.0813365887
 C        -7.5624067662       10.1504033707        0.9602034105
 C        -9.8390060617        9.9869914464        2.7289502352
 C        -9.3093862713        7.5156256589        2.8531186366
 C       -10.0692377134       10.7995511878       -3.2826268576
 C       -11.7525602705        8.8793821323       -3.6755125136
 C        -3.7863613962        6.6999605913       -5.1250149401
 C        -6.0551118945        6.4572577456       -5.9737562842
 C        -7.2699658480        0.8553781713       -1.0308294590
 C        -9.4306857197        1.5962051099       -2.1683150392
 C       -13.3455872990        1.0718441336        3.4620962287
 C       -11.8257067096       -0.3807915138        4.9865102388
 C       -15.1896738977       -6.1736126592        2.0666961768
 C       -15.6914630787       -4.2200215935        3.8203711846
 H       -12.9889038190       -7.3724813966        3.2871638403
 H       -13.7890605151       -7.6829522738        4.8744203930
 H       -12.0661988525       -7.2617121927        4.8022404978
 H       -15.3737738412       -2.9711850658        1.5577382709
 H       -13.7511181424       -2.8055741168        0.8068382188
 H       -13.6798127095       -2.3970636545        3.6492542104
 H       -14.7549772071       -1.2408165492        2.6604663496
 H       -10.2645295839        2.6805124543        2.2867328348
 H       -11.6064576059        2.1136947367        1.3557158458
 H        -9.8773882546        0.6398569878        0.3142797802
 H        -8.5893374666        0.9573205834        1.4494893802
 H        -6.7585511598        1.9517539512       -3.7186854619
 H        -5.6560152276        2.6856368897       -2.7992868835
 H        -7.2917933629        4.7393307046       -4.5814794827
 H        -6.3584997115        3.5609052155       -5.3766234091
 H        -6.6576378659        7.5011086940       -1.9547060617
 H        -7.5828109832        6.5540231029       -3.1824442490
 H        -8.1450690361        8.9178648363       -4.2742368440
 H        -7.7888805556        9.4986883694       -2.6776227773
 H       -12.7249898560        7.9104398481       -1.0974075350
 H       -13.3049220207        9.4246274904       -1.1544364186
 H       -13.1914273838        8.6561418702        1.2555937189
 H       -11.9753929279        9.9814766215        1.0544829351
 H        -7.9557031439       11.0499270372        1.3731419030
 H        -7.1415743141       10.2978492429       -0.0415399373
 H        -6.7649624904        9.7747429459        1.6955084226
 H       -10.1416759988       10.9161701924        2.1268029733
 H        -8.9273757405       10.1058781945        3.1665565300
 H       -10.4813533617        9.9899295390        3.6423843474
 H        -8.6528697001        7.8143683729        3.6974456269
 H        -8.8796522470        6.7914948949        2.3169564831
 H       -10.2686892048        7.2147794972        3.3288160786
 H       -11.0617475228       11.3089445404       -3.4352776025
 H        -9.5849001899       10.6502606864       -4.2184804650
 H        -9.3696521455       11.2350500171       -2.5977475758
 H       -11.7577999365        9.4177843817       -4.6206701473
 H       -12.7217637636        9.2110348473       -3.3195739267
 H       -11.8801377726        7.7980456087       -3.8788757610
 H        -3.7532442484        7.6604672634       -5.5990701365
 H        -3.4765851937        5.9736928879       -5.8458788317
 H        -3.0853609364        6.7430973907       -4.2602521044
 H        -5.6496694927        5.8644140451       -6.7408869735
 H        -6.0537746257        7.4127585246       -6.4621105036
 H        -7.0388154177        6.2156781491       -5.9923950304
 H        -7.7418768127       -0.0619917340       -0.7608535820
 H        -6.4604283903        1.1353134162       -0.3828759280
 H        -6.7761990450        0.6736376143       -1.9715187236
 H       -10.0509751771        2.3613178968       -2.6025775480
 H       -10.1196534830        1.0257756175       -1.4536150936
 H        -9.0579500170        1.0445497320       -3.0841901899
 H       -13.0550137011        2.0065280395        4.1176362623
 H       -14.2899902104        0.6326520257        3.7964293721
 H       -13.4193580848        1.3470380516        2.4031712085
 H       -11.5687405375        0.5527294639        5.5072741788
 H       -11.0750098271       -1.1331621932        4.8524255280
 H       -12.5942845004       -0.9972512350        5.3474890410
 H       -14.2871097149       -6.5217136145        1.4745581438
 H       -15.8505991140       -5.6380538071        1.4791473460
 H       -15.6572323116       -6.9470385583        2.6115734540
 H       -16.6247800080       -4.4253788971        3.2594025276
 H       -15.5263823472       -3.1493269556        3.6809649776
 H       -15.7637997158       -4.3006796617        4.9493047500
 Na       -9.3716650282        5.7755972547       -0.7132622473
