117

 C       -12.7205671889       -6.0431837924        4.2951867072
 C       -13.7561078430       -4.7955992304        4.4970708447
 O       -13.6550763178       -4.0613688193        5.4135251117
 C       -14.6587369534       -4.4951208118        3.2230458120
 C       -13.7855734027       -3.6324997829        2.2585347784
 O       -12.6221863981       -3.9485320212        1.9090559571
 C       -14.4084868214       -2.3537501654        1.6743130703
 C       -14.3318525196       -1.2326758638        2.5726175932
 C       -13.1527232609       -0.2770533660        2.3650352986
 O       -12.6447260262       -0.0934095753        1.2527871929
 C       -12.5715684309        0.4039294787        3.6689609146
 C       -11.0607424188        0.9268598317        3.5325643420
 O       -10.2030464386        0.4484352045        4.2515303996
 C       -10.8981297361        1.9412581085        2.4276506422
 C        -9.2849248727        2.1255661959        2.0575958772
 C        -8.8368722076        2.8413787308        0.7043562706
 O        -9.1395934325        3.9768039279        0.5628766166
 C        -8.2119125945        2.0066157551       -0.6267008466
 C        -7.4296317693        2.9696857997       -1.6572019927
 O        -7.9719160614        4.0531120980       -1.9177196826
 C        -6.1839215729        2.4765327674       -2.4326955019
 C        -5.9368265028        3.3290908063       -3.7844089520
 C        -5.0206185135        4.6315014474       -3.8598373310
 O        -4.3721327991        5.0368991351       -2.9482431281
 C        -5.1925254317        5.6020273005       -5.0320445231
 C        -6.0241165184        6.8633348028       -4.2255207676
 O        -5.3738886109        7.8030083856       -3.8075689257
 C        -7.4948077996        6.8465941038       -4.0681001790
 C        -8.2429412885        8.1566940433       -3.8058723024
 C        -9.6224331096        7.9423510274       -3.3410984689
 O        -9.9481704974        6.8905375187       -2.6870918793
 C       -10.6652205907        9.0153647984       -3.6004613177
 C       -10.9229428480        9.4739122880       -2.1149435998
 O       -10.0923467622       10.3417283268       -1.7637577183
 C       -11.7920031761        8.6758968791       -1.1862782602
 C       -11.3171114533        8.8865464909        0.2185285442
 C       -10.5952723037        7.7951204927        0.9790950435
 O       -11.0779587450        6.7105170777        1.2043783408
 C        -9.2564765062        8.3569518043        1.6490514957
 C        -8.2318756248        8.9012195479        0.5184456672
 O        -8.0751309181        7.9127261158       -0.1949353927
 C        -7.5563839542       10.2211382214        0.3522710429
 C        -9.8067775666        9.2430905268        2.8435472300
 C        -8.4784663261        7.1664721447        2.3158589494
 C        -9.9814158125       10.3727782069       -4.2996072313
 C       -11.9034607141        8.3572893543       -4.2899192828
 C        -3.7864038145        6.1718525952       -5.3927413161
 C        -6.0591834985        5.2111055256       -6.2111815092
 C        -7.2735642144        1.0232776256        0.0191835981
 C        -9.2616325085        1.1480463386       -1.4134693640
 C       -13.4846231296        1.7069227188        3.9471441525
 C       -12.6934883155       -0.3989051769        4.9932063564
 C       -15.0636618739       -5.7105482424        2.3976024164
 C       -15.8894767264       -3.6576318227        3.6249300105
 H       -12.5809315524       -6.3538743407        3.2393419210
 H       -12.8602431263       -6.9897006174        4.9087627546
 H       -11.7702198560       -5.6615997162        4.5881541110
 H       -15.4460928884       -2.5818984917        1.5155890728
 H       -13.8965705711       -2.1242386252        0.5794763669
 H       -14.1155336568       -1.7810644656        3.5726935501
 H       -15.2805229987       -0.6573476984        2.7589247907
 H       -11.0130433549        2.9491283240        2.7092602566
 H       -11.5359578548        1.9243265306        1.5590723697
 H        -8.8661065661        1.1520664795        1.9830789082
 H        -8.6955307818        2.4491936536        2.9285486309
 H        -6.1759372557        1.4916284959       -2.7740686813
 H        -5.2741950698        2.6740185600       -1.6816318524
 H        -6.9142208041        3.6728658581       -4.0760212306
 H        -5.6200391299        2.6288790439       -4.5075654670
 H        -7.8006917457        6.1883310595       -3.2783344113
 H        -7.7865377082        6.4418454108       -5.0889723226
 H        -8.2227024721        8.5697433373       -4.7701288685
 H        -7.8357526054        8.8733108025       -3.1100882402
 H       -11.6606950758        7.5459457119       -1.4742211967
 H       -12.7987779524        8.8363650480       -1.3230959172
 H       -12.2362203222        9.2180538727        0.7150406975
 H       -10.5958148052        9.7392877350        0.3682685470
 H        -6.4537080090        9.9184244206        0.4389813216
 H        -7.7840299457       10.8314804374        1.2284065482
 H        -7.7909068383       10.5065776258       -0.6482667818
 H        -9.7821671260       10.2555320721        2.6642292199
 H        -9.1446563471        9.2832666157        3.7593610654
 H       -10.7746325217        8.9373013747        3.0849691719
 H        -8.0255877052        6.5716049985        1.6006901388
 H        -9.1620767801        6.5424061273        2.9750938749
 H        -7.7530611113        7.5746137040        2.8888069150
 H       -10.4366831387       11.2827231722       -4.1613640593
 H        -9.8533570215       10.1175491267       -5.4292130997
 H        -8.9713015619       10.5740121800       -3.8987677311
 H       -11.5005723726        7.4333660269       -4.6962157725
 H       -12.3204436905        8.9703102836       -5.0873115185
 H       -12.6911456025        8.0178248587       -3.5989700746
 H        -3.6958976792        6.1645417431       -6.5075833585
 H        -2.9414863392        5.4855548123       -5.1454836518
 H        -3.6737170849        7.2533410190       -5.1954362084
 H        -5.6370898130        4.4955426043       -6.9049702608
 H        -6.2838586118        6.0455700060       -6.8307655300
 H        -7.0656930235        4.6421351726       -6.0802660817
 H        -7.7998576260        0.2096800306        0.5405061988
 H        -6.5979749060        1.3660207140        0.7866644461
 H        -6.5305961847        0.5108632144       -0.6565003690
 H       -10.0876271639        1.9215822126       -1.7411425769
 H        -9.7416731164        0.4196650559       -0.6697747275
 H        -8.8537370968        0.3965738698       -2.2016778985
 H       -12.9695259427        2.3649134102        4.6231720666
 H       -14.4247896087        1.4523715069        4.3774742141
 H       -13.7235144576        2.3538419805        3.0705406368
 H       -12.1808931740       -1.3280855664        4.6840843829
 H       -13.6643862896       -0.5984769079        5.3019650541
 H       -11.9488404562        0.1329578034        5.5952686263
 H       -14.1919169028       -6.1989469595        2.1978344201
 H       -15.5964410220       -5.3582520419        1.4035722975
 H       -15.6656276051       -6.2883021243        3.0729445357
 H       -16.6320794519       -3.8390193778        2.8768499815
 H       -15.8201238087       -2.5973401928        3.6631372371
 H       -16.4227144778       -4.0170870086        4.4726056860
 Na       -8.9509622153        5.8336023538       -0.8374736112
