117

 C       -12.6598383622       -5.7637192078        4.3796300574
 C       -13.7054981081       -4.6725720172        4.4357559909
 O       -13.8679426231       -4.0675833063        5.4841072443
 C       -14.6343862140       -4.4634612823        3.2055670272
 C       -13.7759205605       -3.5302858462        2.1284448211
 O       -12.6177407940       -3.7912004937        1.8793051234
 C       -14.4581654587       -2.3334511005        1.5658867450
 C       -14.2757073717       -1.1641311481        2.6018255462
 C       -13.0476699101       -0.1130643048        2.3503859624
 O       -12.8636341574        0.1547186817        1.1367512060
 C       -12.5069112675        0.5537256892        3.6245573823
 C       -11.1080403754        1.0326995705        3.5096537012
 O       -10.2270330908        0.5043666526        4.2228522615
 C       -10.7632323508        2.0616436056        2.4366994044
 C        -9.1969985208        2.0732295560        2.0698114002
 C        -9.0285561617        2.7440949153        0.7018871544
 O        -9.0243147892        3.9925167576        0.7765348567
 C        -8.2833935254        1.9728895896       -0.4887054322
 C        -7.4993242102        2.9926427432       -1.5476958420
 O        -7.7900675718        4.1573077363       -1.7558221146
 C        -6.2180408721        2.5114722285       -2.3119550827
 C        -5.9631875360        3.2371406263       -3.7324439188
 C        -5.1068589474        4.5571660904       -3.6605807011
 O        -4.3289212339        4.7964620667       -2.7501228346
 C        -5.2261653515        5.6232265707       -5.0016896413
 C        -5.9823959372        6.8398717722       -4.3881846029
 O        -5.3388614916        7.7188206270       -3.8728555632
 C        -7.5573738802        6.6960003800       -4.3577876142
 C        -8.1772990801        8.0201441852       -3.9542639717
 C        -9.6176180602        7.8753995258       -3.3750170940
 O       -10.0071881268        6.8954955576       -2.7010899587
 C       -10.6033705461        8.9245070851       -3.6874918643
 C       -10.8524382530        9.4895087137       -2.1391095968
 O       -10.2583454668       10.4258319199       -1.7329161079
 C       -11.8477781580        8.7644829397       -1.1500570099
 C       -11.4193373853        8.9957522884        0.2773977605
 C       -10.5779813315        7.7840881377        0.9911963753
 O       -10.9535651995        6.6639019462        1.0437575882
 C        -9.2091136206        8.2080473118        1.6720512859
 C        -8.1719258197        8.7080010037        0.4820226663
 O        -7.8512582674        7.9683121661       -0.3610332192
 C        -7.6286345191       10.1643377102        0.2654921721
 C        -9.6438521846        9.2580013654        2.7822776739
 C        -8.5700972648        6.9549369113        2.3593525536
 C       -10.0775716905       10.0863937120       -4.4897320861
 C       -11.9091330711        8.4335612172       -4.2980550523
 C        -3.8581083351        6.1054953955       -5.3401825993
 C        -5.9620663885        5.0190525024       -6.2098190573
 C        -7.1694893645        0.9910132558        0.1380736036
 C        -9.2076684610        1.0221159774       -1.2884619413
 C       -13.4946596015        1.8183785263        4.0473938476
 C       -12.6954565633       -0.3708052718        4.9633712156
 C       -15.1251982145       -5.7552719627        2.4653249032
 C       -15.9666858210       -3.7229892182        3.7533009184
 H       -12.5112312902       -6.2916417800        3.4469062380
 H       -12.7769281394       -6.5704399013        5.2532343504
 H       -11.7383449962       -5.2704131286        4.6821278713
 H       -15.4751006495       -2.6347202593        1.3814162225
 H       -14.0100117493       -1.8312282809        0.7111339827
 H       -14.3364024557       -1.6085472258        3.6423842422
 H       -15.1836473311       -0.4089176016        2.5438559658
 H       -10.9063574053        3.1055826669        2.5650005231
 H       -11.3205019919        1.9880699681        1.5456193676
 H        -8.7185572993        1.0671025189        2.1425226483
 H        -8.5208059922        2.6186156322        2.7240403131
 H        -6.2070046636        1.4597859582       -2.7245646007
 H        -5.3735247497        2.6793820192       -1.6004868302
 H        -6.9284657140        3.4515661087       -4.1536818430
 H        -5.4182972054        2.4953511892       -4.3346980024
 H        -7.8218003722        5.9682964552       -3.5428311183
 H        -7.7995706397        6.2975394531       -5.3464335554
 H        -8.0281339606        8.6048197347       -4.8680114412
 H        -7.5733284968        8.4660471171       -3.2516166215
 H       -12.0506666516        7.7038990466       -1.3959316221
 H       -12.7732580654        9.2872377970       -1.3030192115
 H       -12.3863515170        9.1959996544        0.8136555815
 H       -10.7819543729        9.9366580637        0.4450255999
 H        -6.5867145110       10.0319365322        0.3585568535
 H        -7.9768258450       10.8583439267        0.9806408801
 H        -7.9114534196       10.2562193847       -0.8894271790
 H        -9.6015562113       10.3995229535        2.4512338268
 H        -8.9330873241        9.3990289162        3.5203193461
 H       -10.5799572515        8.9527773843        3.1977884120
 H        -8.6238667565        6.1153888240        1.7564754334
 H        -9.0853094583        6.8039166553        3.2610544201
 H        -7.5713582649        7.2242615050        2.6769976295
 H       -10.5576863620       11.0625275004       -4.2420672717
 H       -10.1542078205        9.9122355914       -5.5339949026
 H        -9.0703911141       10.3248361237       -4.2152788349
 H       -11.5551709824        7.4930910542       -4.7023008809
 H       -12.2407934356        9.0685877269       -5.1257484463
 H       -12.7079994199        8.2155225766       -3.6292263909
 H        -3.9486340505        6.6128521519       -6.3216529895
 H        -3.1672672057        5.2535387900       -5.6540079510
 H        -3.4378519917        6.8726430096       -4.6911278054
 H        -5.4478522585        4.1889612692       -6.5981511687
 H        -5.9571558486        5.6997188593       -7.0129675582
 H        -6.9491432864        4.6324626278       -6.1765631843
 H        -7.5398660136        0.1203399182        0.5453516754
 H        -6.7160542237        1.3984040391        1.0230192549
 H        -6.3745499797        0.7306871586       -0.4468816707
 H       -10.0397300614        1.6231931118       -1.6764572643
 H        -9.5851752188        0.1999416639       -0.5854144428
 H        -8.6457055765        0.3040585295       -2.0729069293
 H       -13.0493986334        2.5247668483        4.7016203425
 H       -14.3888402900        1.3770210920        4.6172556098
 H       -13.9731544563        2.4511611511        3.2287255094
 H       -11.9825551372       -1.1647178298        5.0366700684
 H       -13.7068979905       -0.7237087517        4.9026644363
 H       -12.3810087625        0.3191549489        5.6822521472
 H       -14.4482988705       -6.5932607873        2.7113639514
 H       -15.0470252678       -5.5350578394        1.4445580311
 H       -16.1036197912       -5.9411861006        2.7678577606
 H       -16.6724622096       -3.7284701478        2.9731639408
 H       -15.8863393462       -2.7256100134        4.0672723172
 H       -16.4984269991       -4.2384465510        4.4559513798
 Na       -9.0091359042        5.9086654056       -0.9417973101
