117

 C       -12.5122651683       -5.5294623048        4.4451875943
 C       -13.7055066557       -4.6488868997        4.4802485893
 O       -14.0912314487       -4.0126273313        5.4756578565
 C       -14.6438757099       -4.3864994505        3.0892931863
 C       -13.8396405166       -3.4780882912        2.1687928572
 O       -12.7272224893       -3.7706541607        1.9410300639
 C       -14.5014379651       -2.2176761815        1.4174442539
 C       -14.3713226743       -1.0304042593        2.5249417435
 C       -13.2838950152        0.0324982005        2.3575514597
 O       -12.8840492362        0.4309801386        1.3551114896
 C       -12.6894167930        0.6743203477        3.7276627775
 C       -11.0612275596        1.0414386742        3.4626234087
 O       -10.1680092233        0.6282514076        4.1525111774
 C       -10.7025713358        2.1153674537        2.3921016894
 C        -9.2295075685        1.9373422838        2.0157844702
 C        -8.7133486869        2.8116494103        0.7804862781
 O        -9.0398391844        3.9981659052        0.6832405750
 C        -8.0989491674        2.0437981613       -0.4020162127
 C        -7.4316600974        2.9972266699       -1.4483447769
 O        -7.7789467570        4.1371793635       -1.5429297889
 C        -6.2543859741        2.5306865023       -2.2515400469
 C        -6.0874134705        3.1992953918       -3.6129055526
 C        -5.2289556433        4.4630619166       -3.5656065372
 O        -4.3846037745        4.5771732693       -2.6978239159
 C        -5.1329488567        5.4431189660       -4.8803202919
 C        -5.9672650306        6.6877562222       -4.4247481224
 O        -5.5374103172        7.6987821738       -3.9490432944
 C        -7.5566695516        6.5328332076       -4.5338426609
 C        -8.1562704973        7.8347032579       -3.9703685488
 C        -9.6173360496        7.7603303424       -3.4713495226
 O        -9.9304018365        6.8454440713       -2.7786464403
 C       -10.6394143909        9.0105738827       -3.6434130819
 C       -10.8564811647        9.5841157849       -2.1470387219
 O       -10.3084918663       10.5677543871       -1.7477146424
 C       -11.8704947337        8.7773776728       -1.1032656117
 C       -11.4940809456        8.9403377625        0.4286587901
 C       -10.4832945569        7.8699795005        0.8531139373
 O       -10.8446688222        6.6936355896        0.7010962206
 C        -9.1169797384        8.1645129841        1.6439689622
 C        -8.2277163449        8.5437343690        0.4238587379
 O        -7.7834139490        7.7870398505       -0.4547019494
 C        -7.8150898136       10.1390569281        0.3774776145
 C        -9.3208737402        9.3105359707        2.5830736170
 C        -8.6555781533        6.8932324238        2.3396200517
 C       -10.2017214959       10.0801096542       -4.6439324080
 C       -12.0319049397        8.4249518629       -4.2850257680
 C        -3.7640470107        5.9262257757       -5.2974807447
 C        -5.7867137650        4.7280810152       -6.0620257433
 C        -7.0660821313        1.1122223143        0.2279728276
 C        -9.1812241569        1.1032138938       -1.1729282998
 C       -13.4807380619        1.9148956234        3.9223032123
 C       -12.5523357640       -0.3147440974        4.9094226528
 C       -15.0732921382       -5.7668795134        2.5331330673
 C       -15.9200519449       -3.7854976197        3.7483226686
 H       -12.4509472006       -6.0431439464        3.4504729807
 H       -12.6060217967       -6.2440171584        5.1725794324
 H       -11.5320863936       -5.0187830546        4.7721164455
 H       -15.5354942003       -2.4532508098        1.1015851859
 H       -13.9665157191       -1.7785207527        0.6821641228
 H       -14.2631682346       -1.4268460507        3.5278179878
 H       -15.2861917264       -0.3986528977        2.6344991006
 H       -10.9278528045        3.2191008077        2.5537880609
 H       -11.1930844779        2.0446276376        1.4255026123
 H        -9.0279765913        0.8144912248        1.9281951415
 H        -8.4755815985        2.1383479065        2.7733742395
 H        -6.3307766164        1.4461823127       -2.6548758658
 H        -5.4186184005        2.6822751758       -1.6602846267
 H        -7.0917053696        3.2472395798       -4.1051601970
 H        -5.3931394052        2.4712984806       -4.1350590885
 H        -7.7879085973        5.6896786934       -3.8135193305
 H        -7.8179928647        6.2378456588       -5.5208394675
 H        -7.8707291917        8.5398726657       -4.7824270721
 H        -7.5458807239        8.1925014543       -3.1203423472
 H       -11.9779836067        7.7942329309       -1.4347845095
 H       -12.8736365677        9.3645979438       -1.2773655695
 H       -12.3984335716        8.7905614716        1.0865518629
 H       -11.1070675079        9.9330014319        0.6740418049
 H        -6.7797479453       10.2652606684        0.5538499635
 H        -8.3550844937       10.6461894943        1.1781234515
 H        -8.1168564423       10.4301763244       -0.5816598763
 H        -9.5728510699       10.3157760466        2.2534311718
 H        -8.3952314017        9.6261068059        3.0420962801
 H       -10.0549159968        8.9237258738        3.3742521754
 H        -9.1056252837        5.9743872121        1.8007610370
 H        -9.0433147789        6.9485388352        3.3031476425
 H        -7.5580250227        6.8620467914        2.5640398470
 H       -11.0188992744       10.8479810244       -4.8419273167
 H       -10.0161488986        9.6093577553       -5.5452103102
 H        -9.3924942461       10.6931102795       -4.3273818014
 H       -11.7497427339        7.5279599256       -4.8493333688
 H       -12.4398461272        9.1585755936       -4.9656417484
 H       -12.7880821926        8.1741775792       -3.5381015660
 H        -3.8147633514        6.9030399997       -5.7978978826
 H        -3.3859731229        5.3013064248       -6.0720757203
 H        -3.0324815431        6.0196749677       -4.4493457434
 H        -5.2014561858        3.8583024005       -6.3488149080
 H        -5.6801089331        5.3785911368       -6.9324898807
 H        -6.7585312944        4.4402834888       -6.0267435037
 H        -7.4716496597        0.3290783586        0.7935621656
 H        -6.6607550588        1.6215600682        1.0564721875
 H        -6.2732707562        0.6986614932       -0.3234157219
 H        -9.9133509453        1.7107392620       -1.6652832523
 H        -9.5801598959        0.3167815720       -0.5285339085
 H        -8.6461935505        0.4989057219       -1.7898812674
 H       -13.0492547136        2.6888023300        4.6622615822
 H       -14.5549908964        1.7897874735        4.2544913150
 H       -13.5166826542        2.4227028176        2.9630981285
 H       -11.7409522882       -0.9961182998        4.6860941265
 H       -13.5398814315       -0.7971547244        4.9175628604
 H       -12.0754712962        0.2143579781        5.7164863485
 H       -14.6039836171       -6.5914730572        3.1277968736
 H       -14.6678277183       -5.8792834143        1.5816196901
 H       -16.1539066166       -5.8207544150        2.5074345335
 H       -16.7291452390       -3.4161899277        3.1695337586
 H       -15.6875644519       -3.0577764695        4.4969181688
 H       -16.4638770559       -4.5616194818        4.3000062474
 Na       -9.0616089840        5.9299304870       -0.8958302097
