117

 C       -12.4230740220       -5.0167263359        4.2861987953
 C       -13.8610702924       -4.3444764799        4.5648569564
 O       -14.1754425276       -3.9710765782        5.6547112444
 C       -14.6898792751       -4.1829009980        3.2010739476
 C       -13.8813250302       -3.3089652749        2.3259030853
 O       -12.8151983196       -3.8155941145        1.8806249989
 C       -14.3868950229       -1.9996596360        1.7439817783
 C       -14.5143190981       -0.6802884762        2.5645128476
 C       -13.3246741297        0.2472450705        2.4472487714
 O       -13.1753626741        0.6263617632        1.2288099447
 C       -12.5941084280        0.8146912908        3.6475489162
 C       -11.1340346257        1.1955289864        3.4050844340
 O       -10.1652132478        0.7317472142        4.0232466456
 C       -10.8239740400        2.2147400161        2.2647626809
 C        -9.2847710594        1.9079237965        1.9804616649
 C        -8.7012615462        2.8410618387        0.9566341547
 O        -9.1998222988        3.9582476932        0.8494164316
 C        -7.7722592146        2.1441573312       -0.2053442815
 C        -7.1558478067        3.0269547096       -1.2715770532
 O        -7.6118305235        4.1248429446       -1.6133635584
 C        -6.2156702590        2.3431310704       -2.1476456755
 C        -6.2785310846        3.1661489401       -3.4927998078
 C        -5.2826585720        4.2565322555       -3.4448214257
 O        -4.4444491166        4.2993309630       -2.5578490107
 C        -5.1417302829        5.0083450263       -4.7430921039
 C        -6.0793733710        6.3616060313       -4.5489595389
 O        -5.5106478766        7.3679342896       -4.2309523686
 C        -7.7425446188        6.4333152944       -4.5460482210
 C        -8.2900350319        7.8475561092       -4.0743491916
 C        -9.7011383154        7.7198037944       -3.4162129117
 O       -10.2073567602        6.6947947658       -2.8826596386
 C       -10.7973904423        8.9409884284       -3.5647121219
 C       -10.8324591336        9.5737032540       -2.1452413659
 O       -10.3299193154       10.6376579347       -1.9158394005
 C       -11.8321031160        8.8335843638       -1.2152299131
 C       -11.4241172913        9.0790596274        0.2152923863
 C       -10.5021734547        7.9085593021        0.6722168388
 O       -10.6408813705        6.9234459213        0.0297282803
 C        -9.1844585648        8.1696629023        1.5776460571
 C        -8.2088509277        8.5989576712        0.2753725296
 O        -7.7944217669        7.6729750150       -0.3594275896
 C        -7.7122797294        9.9303419820       -0.1543898466
 C        -9.2183442077        9.2002781855        2.7260340254
 C        -8.6673580696        6.7540625290        2.0939912976
 C       -10.3306163145       10.0050343726       -4.5052641584
 C       -12.1097666279        8.2603824308       -3.9713034004
 C        -3.6912623129        5.5162589121       -4.7741984669
 C        -5.5308444040        4.3299998382       -6.0674113428
 C        -6.6875170262        1.2288889711        0.3834225773
 C        -8.8411300363        1.4252460910       -1.0108537771
 C       -13.3269171901        2.1408874322        4.0250215571
 C       -12.6651996082       -0.1176247819        4.9899342178
 C       -14.7583565627       -5.7161767250        2.5233446034
 C       -16.1305074599       -3.7397060080        3.4064313664
 H       -12.2709106110       -5.2378043230        3.2921057273
 H       -12.0872830123       -5.8907227571        5.0015064280
 H       -11.7455904936       -4.3369470198        4.6300869995
 H       -15.4918788155       -2.1132189601        1.6327108071
 H       -13.9480869059       -1.6106721575        0.7289805060
 H       -14.7553379052       -0.9157726477        3.5963590886
 H       -15.4498232992       -0.2275598637        2.3293180079
 H       -11.1945601671        3.1827842378        2.6374667925
 H       -11.5213377886        2.1076477330        1.3613675653
 H        -9.2280425275        0.9088556917        1.5670609349
 H        -8.8466481583        1.7362416006        2.9976375634
 H        -6.5680713692        1.3875641284       -2.3672622073
 H        -5.1113190548        2.4619167843       -1.8533834285
 H        -7.2833032468        3.5143776076       -3.6832109967
 H        -5.8592456294        2.5723036458       -4.2822827693
 H        -8.0330359388        5.6832612942       -3.8411279651
 H        -8.0360571408        6.0305061745       -5.5588435202
 H        -8.0934935852        8.5264267874       -4.9056834915
 H        -7.5645284181        8.2070257366       -3.2923111498
 H       -11.8318802719        7.7441131545       -1.6181836436
 H       -12.7017746357        9.3617800807       -1.3907252873
 H       -12.2175965199        8.9387123034        0.8809834135
 H       -11.0816182760       10.1042056679        0.3097046309
 H        -6.7642277332        9.8820456018        0.3699437627
 H        -8.2724671285       10.7274653690        0.2510504555
 H        -7.6571160188        9.9292565335       -1.3477502089
 H       -10.0324536577       10.0076570472        2.5463899819
 H        -8.3923094552        9.8835585781        2.7691774319
 H        -9.3563683820        8.7899428229        3.6436482686
 H        -9.0058405317        5.8946918524        1.5750890556
 H        -8.9429146979        6.6940522196        3.1795338973
 H        -7.5879561713        6.8770249452        2.2697006797
 H       -11.1467197516       10.5394516708       -4.9487158053
 H        -9.7172545015        9.7736547692       -5.4155665656
 H        -9.8372730152       10.7553664451       -3.8363294660
 H       -12.2365597767        8.1588404702       -5.0614334722
 H       -12.8940911959        8.9048293921       -3.5039955969
 H       -12.1820704662        7.3309419492       -3.4263282610
 H        -3.5735629216        6.4053917549       -4.1773789871
 H        -3.3438818089        5.9078561299       -5.7665731314
 H        -3.0468980310        4.7054595589       -4.4699946844
 H        -4.9558548682        3.3770929789       -6.3325705529
 H        -5.3800558265        4.9920348576       -6.9885698337
 H        -6.6734764385        4.0436448329       -6.0678752785
 H        -6.9286336711        0.7249671808        1.3808263705
 H        -5.6550413641        1.5936113152        0.7541346072
 H        -6.5508804480        0.3729080756       -0.3261824780
 H        -9.3762529237        2.2133102836       -1.4091402618
 H        -9.2879203328        0.6853531852       -0.3399750248
 H        -8.4877204406        0.6713483768       -1.8000127974
 H       -13.1837003172        2.3590904104        4.9976172121
 H       -14.3941055059        2.0031502079        4.0067359630
 H       -13.1533349672        3.0366334579        3.4145148845
 H       -12.2544177569       -1.1311997086        4.9833785405
 H       -13.6762944098        0.1367163194        5.3426215773
 H       -11.8168428446        0.3775427058        5.4409765054
 H       -15.4759199352       -6.2858703647        3.1820162180
 H       -13.7764548059       -6.2440717872        2.6033326826
 H       -15.1969832041       -5.6672631787        1.4747103559
 H       -16.7052491491       -3.3466032327        2.4987287485
 H       -16.1508600997       -2.9136322913        4.2061047529
 H       -16.8847012681       -4.4272308664        3.8211568974
 Na       -9.0288261803        5.6490194302       -0.7505262201
