117

 C       -12.4023723148       -4.2130285042        4.7642936394
 C       -13.9040911038       -3.9295643859        4.5064641104
 O       -14.6135149614       -3.6998853617        5.4304113956
 C       -14.5829305619       -4.0190100528        3.1769629252
 C       -13.9774005971       -3.0802291621        2.0017266062
 O       -12.8080200399       -3.2900055117        1.6378872401
 C       -14.7352247373       -1.7073917250        1.5707365831
 C       -14.7407599179       -0.5438040165        2.7968381169
 C       -13.5764926298        0.4714191541        2.6615632080
 O       -13.1906329774        0.8986097265        1.5400853488
 C       -12.7977168452        1.0434765348        3.9372476264
 C       -11.2920977473        1.1964551911        3.6397867540
 O       -10.5016554451        0.4857558741        4.2404104107
 C       -10.7572917512        2.0042551826        2.3202259478
 C        -9.2634474955        2.0290076970        2.2696246270
 C        -8.7773321956        2.8412399597        0.9331322201
 O        -9.0645673489        3.9880655273        0.7339841025
 C        -7.8401697375        1.9994232574       -0.0784687105
 C        -7.0696220930        2.7626116209       -1.2365971596
 O        -7.0461886515        4.0006132696       -1.3136225238
 C        -6.1427526482        1.8543913126       -2.2271822387
 C        -5.8323832082        2.5386522420       -3.6387581988
 C        -5.2138183609        3.9832081053       -3.4887420840
 O        -4.7929532985        4.2202382290       -2.3976554233
 C        -5.1343556328        4.9931117372       -4.7536996299
 C        -6.1203575452        6.2100585812       -4.5366182711
 O        -5.6116096558        7.3148263256       -4.5786158805
 C        -7.7110525401        6.1292590334       -4.1096363181
 C        -8.4064654965        7.5090084681       -4.0941569997
 C        -9.7697486480        7.4656640040       -3.4329208817
 O       -10.0212647029        6.5211347051       -2.6777857325
 C       -10.8431053187        8.5990487938       -3.6908837261
 C       -10.9142783066        9.4070157320       -2.2455703062
 O        -9.9878595337       10.2173202259       -2.1384311397
 C       -12.0080030818        9.3306896273       -1.1822465601
 C       -11.3675773554        9.2431655887        0.2132245184
 C       -10.4757389197        7.9195087271        0.4385881152
 O       -10.7517108730        6.9025954749       -0.1414900843
 C        -9.1108604240        8.1613533093        1.1687946479
 C        -8.0112553689        8.4734314017        0.0572715728
 O        -7.6327549463        7.5073094061       -0.5923433556
 C        -7.5216655036        9.8950158801       -0.2633097176
 C        -9.0467240710        9.4506453517        2.0999843287
 C        -8.7158695702        6.9768847234        2.1719416565
 C       -10.2695178916        9.5680440219       -4.6165527022
 C       -12.1642205672        8.0126440510       -4.1065803921
 C        -3.6264480533        5.4475904082       -4.8473086154
 C        -5.5499280172        4.4094854028       -6.1372153384
 C        -6.6561361933        1.4518747472        0.7152306949
 C        -8.8175750535        0.9092185220       -0.6472342799
 C       -13.3862843284        2.5212550895        4.1436538024
 C       -12.9887572025        0.1952841012        5.3118310499
 C       -14.4521707215       -5.4298094519        2.6459310478
 C       -16.0817389017       -3.6273321007        3.4151655679
 H       -11.7033390334       -4.3814485074        3.9771270166
 H       -12.4374827482       -5.1780501923        5.4760326646
 H       -12.0231310987       -3.5572070202        5.4958106569
 H       -15.7059365687       -1.7908836160        1.2411153195
 H       -14.0832018955       -1.2658809304        0.7093618383
 H       -14.6690764144       -1.1573385415        3.6851314734
 H       -15.6827409585       -0.1615406569        3.0752069185
 H       -11.2609700113        2.9851924392        2.5093228231
 H       -11.3122162070        1.6829351911        1.3746935996
 H        -8.8814652824        1.0374241692        2.2484734435
 H        -8.9734689827        2.5647513892        3.2381179780
 H        -6.5468876665        0.9648327545       -2.4127298050
 H        -5.1160746894        1.9099200410       -1.8468734603
 H        -6.8711037878        2.5103850364       -4.1098039071
 H        -5.1108203698        1.9076596898       -4.2202634741
 H        -7.8291616408        5.7582626774       -3.0975101457
 H        -8.2806780528        5.3234427489       -4.6729691273
 H        -8.5630896052        7.7248364763       -5.1451529153
 H        -7.6613874198        8.3214725193       -3.7509134989
 H       -12.6790284601        8.4113431837       -1.3481221687
 H       -12.4402708728       10.3155551468       -1.2689681139
 H       -12.2465540422        9.3134523954        0.8929219599
 H       -10.6776480920       10.0507623491        0.4199758369
 H        -7.4744428317       10.5693750764        0.5592466980
 H        -8.2917863919       10.1154033852       -0.8931848057
 H        -6.5637178425        9.8855471287       -0.8654214893
 H        -8.6075757423       10.3760584663        1.5800686990
 H        -8.4664061800        9.2984263169        3.0474510306
 H        -9.9617177709        9.8781655222        2.4528934898
 H        -8.3607896100        6.1727014901        1.5213724558
 H        -9.6694363338        6.5093397436        2.6306119579
 H        -7.9732093960        7.3362491600        2.9691124825
 H       -10.5990310511       10.5284531172       -4.5524988436
 H       -10.6060824882        9.2249830735       -5.6459157005
 H        -9.1991988833        9.5364723306       -4.6604248075
 H       -12.8962930677        8.8130854172       -4.2181090908
 H       -12.3843601998        7.2651352028       -3.3748327379
 H       -12.0132512925        7.5722856974       -5.0870559841
 H        -3.1358886229        5.0710837182       -3.9565127903
 H        -3.4557849501        6.4860127019       -4.5877881925
 H        -3.1655462616        5.2502034103       -5.8014488482
 H        -5.0168103908        3.5783833193       -6.4973096068
 H        -5.4724961058        5.1644999420       -6.8491448961
 H        -6.6267129588        4.1284787692       -5.9719972999
 H        -6.6879525083        1.7593381128        1.7616341359
 H        -5.7866101085        1.8835425542        0.2387212283
 H        -6.4531277048        0.4122536297        0.7045326200
 H        -9.5370717659        1.3718873581       -1.1580586217
 H        -9.0618087821        0.2731049061        0.1367596840
 H        -8.2464409536        0.3179511779       -1.3745856238
 H       -12.6544930618        3.0840797346        4.7302251423
 H       -14.3157214331        2.7522999322        4.6793893477
 H       -13.4999941569        3.0763194822        3.1337296705
 H       -12.3015393444       -0.6517098152        5.1115256870
 H       -14.0235582423        0.1521092467        5.4273499334
 H       -12.5697202360        0.8063764655        6.1527909839
 H       -14.9986175877       -5.4893856091        1.7292733819
 H       -14.8828871107       -6.2550244847        3.2784141865
 H       -13.4061782358       -5.6360010977        2.3770327094
 H       -16.6934062716       -4.1955916892        2.7667976656
 H       -16.4836404664       -2.6335027188        3.3949474735
 H       -16.3458020845       -3.9658167754        4.3779907492
 Na       -8.9902184147        5.5646450754       -1.0149080918
