117

 C       -12.4332686146       -4.0056937628        4.6970512465
 C       -13.9421378236       -3.6970814121        4.5997309432
 O       -14.6542359364       -3.5022101976        5.5915607928
 C       -14.6039070733       -3.8641213449        3.0478528157
 C       -13.9120792921       -2.8422946264        2.1696228785
 O       -12.9010429230       -3.1205076769        1.5637651426
 C       -14.6662982539       -1.6438643452        1.7359306618
 C       -14.7000990783       -0.5781313415        2.7847420823
 C       -13.5836932796        0.4376070785        2.7216367524
 O       -13.3634925582        0.9606630622        1.6031145779
 C       -12.8681086284        1.0417553827        3.9679023487
 C       -11.3071467401        1.0229142843        3.6677459000
 O       -10.3690782196        0.4800581844        4.2604554160
 C       -10.8891489501        2.0239771978        2.4086085788
 C        -9.2684185579        2.2383991925        2.2827842662
 C        -8.7664390003        2.7784824912        0.8770723076
 O        -9.1243233804        3.9546917335        0.6978101510
 C        -7.7603086933        1.8981008702       -0.0299780028
 C        -7.1391410882        2.6462363055       -1.2759456974
 O        -7.1329172711        3.8359644227       -1.2539830926
 C        -6.3213512598        1.8417475644       -2.3038997709
 C        -5.7555376956        2.5564581979       -3.5682734300
 C        -5.2369412357        3.9909207912       -3.3954405370
 O        -4.6395127491        4.4797768810       -2.4394789659
 C        -5.2824404224        4.9201955734       -4.6581036845
 C        -6.1130339803        6.2371085008       -4.4360096977
 O        -5.6673026335        7.3184207880       -4.6899101984
 C        -7.5060854783        6.0303509648       -3.9128050179
 C        -8.4576000481        7.2781177842       -4.1779484597
 C        -9.7545440632        7.3025898286       -3.4108113644
 O       -10.2090768900        6.4322964947       -2.6425644409
 C       -10.7150366994        8.4983557563       -3.7202984499
 C       -10.7198991184        9.3990088300       -2.4109347059
 O        -9.8011162611       10.1165737218       -2.1706982234
 C       -11.9661037712        9.2193430825       -1.3663148441
 C       -11.4146483591        9.1830274476        0.1273922546
 C       -10.4101490994        8.0170439246        0.2828034057
 O       -10.7150575193        6.9435499369       -0.0414588748
 C        -9.0272360275        8.2617415021        1.1640591424
 C        -7.9608808299        8.4410188146        0.0325593862
 O        -7.6490718598        7.5126309870       -0.6491771470
 C        -7.2908111043        9.7437722774       -0.3851211248
 C        -9.0755525405        9.5809724544        2.0930352858
 C        -8.8269698019        7.0622385612        2.0085319234
 C       -10.2515851152        9.5784034622       -4.8013615473
 C       -12.1157918450        7.7982685373       -3.9750979483
 C        -3.8071016627        5.3766381869       -4.8956752368
 C        -5.6763908296        4.4062683826       -6.0820902123
 C        -6.5389452099        1.2830647268        0.8484160105
 C        -8.6965312824        0.6273983872       -0.4868457054
 C       -13.3714349112        2.4708245929        4.1264981500
 C       -13.1443027374        0.4346157945        5.4327946933
 C       -14.3520957320       -5.2854455675        2.6512945814
 C       -16.1661016545       -3.6913666079        3.1285609502
 H       -11.8774917656       -3.9231536196        3.7796094629
 H       -12.1995490188       -4.9418387664        5.2168811295
 H       -12.0370746225       -3.3235950586        5.4106137917
 H       -15.7799263589       -2.0271372658        1.5667442997
 H       -14.3079781331       -1.2266277208        0.7700193795
 H       -14.8778791800       -1.1677778142        3.6619202920
 H       -15.5855221339       -0.0587749194        2.8158683496
 H       -11.6319366623        2.8260329215        2.6251939720
 H       -11.2841947628        1.6394435690        1.3850936866
 H        -8.8908098245        1.2403693090        2.3928357592
 H        -8.8314987252        2.9731356916        3.0232941252
 H        -6.9743180134        1.0575102990       -2.7234134168
 H        -5.4084578726        1.5269740339       -1.8482123515
 H        -6.5962915425        2.4578322833       -4.2916131682
 H        -4.8683337862        1.9697204647       -3.9418429080
 H        -7.6304265140        5.8017196253       -2.8943688403
 H        -7.9260584042        5.0922612592       -4.3840677538
 H        -8.5508123644        7.4908956314       -5.2964444004
 H        -7.9380972080        8.2292931699       -3.7819993296
 H       -12.5720289511        8.2650839690       -1.4970345826
 H       -12.4427104963       10.1410616601       -1.5202374847
 H       -12.2486123468        8.9330443048        0.6841444158
 H       -10.9547237791       10.0776111985        0.5204719133
 H        -7.1081547614       10.2125056995        0.5315865131
 H        -8.0057180261       10.2148597877       -1.0782064788
 H        -6.3171208907        9.5791747203       -0.9084365380
 H        -8.9080049504       10.5253756664        1.4815092189
 H        -8.4400431249        9.5451673430        2.9033348450
 H       -10.0614174793        9.8180120346        2.4618672757
 H        -8.3935595876        6.1952877311        1.3696166708
 H        -9.7594921758        6.6868415147        2.2881090937
 H        -8.1870896601        7.3793089950        2.9431213449
 H       -11.0561582410       10.3437361130       -5.0753801894
 H       -10.0769768924        9.0648714059       -5.7072933918
 H        -9.2845950164       10.0093413623       -4.5534132679
 H       -12.9498748740        8.3786475644       -3.5809191561
 H       -12.0799007224        6.7338095865       -3.6741950164
 H       -12.1705406878        7.9047827287       -5.0314185664
 H        -3.1276007874        4.9227326360       -4.2474210767
 H        -3.6965346326        6.4140518363       -4.5115626864
 H        -3.5549861928        5.4532677650       -5.9037815161
 H        -4.9027119308        3.7097373515       -6.5314271925
 H        -5.5864228780        5.3703291979       -6.6771595319
 H        -6.6976426927        3.9764309860       -6.1936575908
 H        -6.5727320896        1.4989693610        1.9548416892
 H        -5.5549538656        1.6085669192        0.3142663812
 H        -6.4773778644        0.1716351775        0.7459089917
 H        -9.4807733159        0.9989001739       -1.1182710195
 H        -9.1149658770        0.1914438067        0.4106156076
 H        -8.1382084491        0.0015977455       -1.0887739705
 H       -12.7784543395        3.1313371582        4.6764665835
 H       -14.3867829691        2.5816871337        4.5793562154
 H       -13.5367543924        2.8845409747        3.0928568211
 H       -12.4216381206       -0.3582769715        5.5501204009
 H       -14.2526555069        0.4332908923        5.6389434246
 H       -12.8611225038        1.3027429623        6.0283110507
 H       -14.4090317330       -5.5512402878        1.4723553392
 H       -15.1650731193       -5.8759493969        3.0555336992
 H       -13.3985044037       -5.7238367633        3.0218595288
 H       -16.7719885025       -4.0684240123        2.2536270336
 H       -16.6909125541       -2.7494806545        3.4516364227
 H       -16.4342253695       -4.3714445443        3.9463581294
 Na       -8.9152594742        5.6174455950       -0.9646273242
