117

 C       -12.6801044483        2.8255883013      -10.6671820565
 C       -12.9600040381        1.3676376914      -10.1071057867
 O       -14.0119965860        1.2009514642       -9.5176916705
 C       -11.8973264118        0.2997004472       -9.9748413100
 C       -11.5227895501        0.0106720811       -8.4596063382
 O       -11.4476034244       -1.1270395719       -7.9692664424
 C       -11.3289091055        1.2421668866       -7.5084400862
 C       -10.4851312355        0.9699461852       -6.2104062140
 C       -10.2592577250        2.2594421708       -5.4318314697
 O       -10.6951022972        3.3234778509       -5.8424492271
 C        -9.7689882303        2.0276231689       -3.9359236917
 C        -8.8820484628        3.2635635949       -3.4578678983
 O        -7.6743400095        3.1776882865       -3.4900386091
 C        -9.6513525548        4.5493487751       -3.0825082632
 C        -8.6593129099        5.6355746479       -2.6240004282
 C        -8.6642360238        5.8322090018       -1.1077840122
 O        -8.8020857367        4.8385439403       -0.3980948175
 C        -8.4574477183        7.2761401139       -0.5004827666
 C        -9.6404850477        7.6036429024        0.6561711933
 O       -10.1897989684        6.6969205211        1.2047221320
 C        -9.9084519868        9.0294487991        1.2769893671
 C       -10.7352997294        8.8762876457        2.5573532838
 C       -10.0362620653        7.8985591394        3.4936091623
 O        -8.8444862974        7.6806741461        3.4232770123
 C       -10.9436120503        7.0391639591        4.5052188106
 C       -10.0068626481        5.7845401340        4.9868905374
 O        -9.5013891284        5.0261552896        4.1703928135
 C        -9.7106701080        5.6053949153        6.4686930191
 C        -9.6080192054        4.1296003323        6.7824541707
 C       -10.9682096343        3.4672175091        6.6744131800
 O       -12.0401390833        4.0251517096        6.5597900167
 C       -10.7705516130        1.8109696236        6.8145404501
 C        -9.6486683048        1.1593094905        5.9074650057
 O        -8.4939076818        1.2225413686        6.2677445070
 C        -9.9888865707        0.5728347698        4.5240461023
 C        -8.6406009991        0.5347124628        3.5891686235
 C        -8.3984618974        1.8573201901        2.7973220309
 O        -9.2671706402        2.6688328310        2.4962469192
 C        -6.8919298395        2.2127548949        2.4153295839
 C        -6.5172581489        3.5343647226        3.2160153383
 O        -6.8569483361        4.5741647477        2.7264643833
 C        -5.5907736233        3.4600899801        4.6048576642
 C        -5.8915611770        1.1062411786        2.8076297156
 C        -6.6910531291        2.3748869821        0.8809102716
 C       -10.5220418660        1.5337085140        8.3089112661
 C       -12.1353293999        1.2204413604        6.2899299864
 C       -11.5900531163        7.9059656341        5.6844818178
 C       -12.2675487436        6.5255296278        3.7993092881
 C        -7.1708536980        7.2756017905        0.4044253952
 C        -8.2387644480        8.3903888828       -1.5274957537
 C       -11.0722664407        1.8081705025       -3.0918154163
 C        -8.8980616253        0.8003935033       -3.8960393139
 C       -12.5883024869       -0.9638096925      -10.6108966945
 C       -10.5607449877        0.5354743203      -10.7300484272
 H       -13.1424582030        3.4856243394       -9.9437950307
 H       -13.0318722048        2.8688054371      -11.6572053919
 H       -11.6171659656        3.0102214754      -10.6468613190
 H       -12.3038967665        1.6194525808       -7.0572051139
 H       -10.9689132952        2.1505563107       -7.9910794865
 H        -9.5325219729        0.5459982387       -6.5591146519
 H       -11.0575340062        0.2578234318       -5.6449070765
 H       -10.4479205180        4.3135824091       -2.4402447868
 H       -10.1735764199        4.9557195168       -3.9508903415
 H        -8.7631442577        6.5762199883       -3.1280499863
 H        -7.7155313139        5.3238904709       -3.1159726864
 H       -10.5471583610        9.4843660559        0.4326959985
 H        -9.1039408648        9.6271451906        1.6171728862
 H       -11.7331496651        8.5918232764        2.3310345112
 H       -10.7117912373        9.8841872939        2.9719463888
 H       -10.5762757947        6.0277066981        6.9591165522
 H        -8.8767300877        6.2179053819        6.7977195192
 H        -9.2275266258        3.9988535840        7.8000539920
 H        -8.9770147051        3.6975677228        6.0368073759
 H       -10.9499788211        0.8556841815        4.0420833027
 H       -10.0914505676       -0.5193649229        4.7535120887
 H        -8.7575325739       -0.3125095244        3.0306090789
 H        -7.7824109123        0.3618276551        4.1807544531
 H        -5.1315492626        4.3840322517        4.8027775662
 H        -4.6784368855        2.8026686681        4.6057296600
 H        -6.3191264664        3.2840889057        5.3885425430
 H        -6.2896868457        0.1047524226        2.4655338440
 H        -5.7966016163        0.9748308368        3.9093001708
 H        -4.9289436002        1.1939164759        2.3306603802
 H        -7.1714864376        3.2462324704        0.5396360516
 H        -7.0909313910        1.4638017462        0.4078629481
 H        -5.6062684145        2.5087795798        0.5692480188
 H        -9.5072933781        1.4440199454        8.5411101393
 H       -11.0593660511        0.6840965301        8.6707533585
 H       -10.9359474979        2.3661791991        8.9485188270
 H       -12.1362286656        0.1392428582        6.3760119210
 H       -12.1386021349        1.5669311037        5.2280585476
 H       -12.9524174332        1.8081571461        6.7863202536
 H       -12.1992409608        8.6139743159        5.1123032853
 H       -10.9389421866        8.4734492969        6.2771127573
 H       -12.1729600765        7.2403740346        6.3551927794
 H       -11.9811870215        5.8834657704        2.9085317734
 H       -12.9438088780        7.3598155216        3.5187761888
 H       -12.8219626568        5.9919631483        4.5525636851
 H        -6.9251921000        8.3448047684        0.4054606672
 H        -6.2984041360        6.7919611187       -0.0840343880
 H        -7.3339530178        6.8175631952        1.4094642571
 H        -7.2098477778        8.2739757270       -1.9027445420
 H        -8.3407712035        9.3468817268       -0.9546072419
 H        -8.8066398471        8.3439449136       -2.4863036830
 H       -11.4704277284        0.8409239799       -3.4597516398
 H       -11.7750120111        2.6338477005       -3.2051384599
 H       -10.8447562383        1.7475034160       -2.0345673875
 H        -9.2370702192       -0.1002318549       -4.5071624430
 H        -8.7937866149        0.4576711799       -2.8416683305
 H        -7.9201585231        0.9983549105       -4.3747913261
 H       -13.5185658159       -1.3322770431      -10.0541633507
 H       -11.8131540256       -1.7258513928      -10.5550222605
 H       -12.6729556526       -0.8717774424      -11.6819439023
 H        -9.8053706481        1.2320428362      -10.3870972599
 H       -10.6288415434        0.6107241416      -11.8446765398
 H        -9.9272631084       -0.4009097013      -10.6161048769
 Na       -8.8944913222        4.8977518750        1.7989114766
