117

 C       -12.7087973127       -3.0142420106        4.8142883964
 C       -14.1738610464       -3.1323039296        4.4395066729
 O       -14.9912327626       -2.5256626943        5.1475458704
 C       -14.5461823712       -3.7511226768        2.9389341761
 C       -14.0829206063       -2.6070267671        2.1428786084
 O       -13.0381406203       -2.5083928049        1.5639344869
 C       -15.0081935196       -1.2804929431        2.0912849561
 C       -14.5820247167       -0.3500213362        3.1688373668
 C       -13.5875663365        0.8383938075        2.7602318394
 O       -13.4617642188        1.2070719322        1.6277077211
 C       -12.8783748646        1.4977134906        4.0036426053
 C       -11.3159916702        1.3289968207        3.7254935875
 O       -10.6667347652        0.4932523023        4.2790727451
 C       -10.8165629527        1.9457813806        2.4261991993
 C        -9.3525297527        1.7537102069        2.3638928727
 C        -8.8566746842        2.3952973013        0.9488716873
 O        -9.5538190283        3.3318015804        0.5371405542
 C        -7.7064293263        1.7240323976        0.2283384865
 C        -7.2265661952        2.5325534899       -1.0833926558
 O        -7.6889301209        3.5445486009       -1.5116645194
 C        -6.1004139341        1.8428349833       -1.8537822251
 C        -6.1305869172        2.5039514411       -3.2628065819
 C        -5.4344429529        3.8918476118       -3.2311428425
 O        -4.8561034292        4.2141257497       -2.1758172256
 C        -5.2692468559        4.7277925234       -4.5920803400
 C        -6.0209287623        6.1367697908       -4.3800756058
 O        -5.7018850186        7.1712291026       -4.8687795984
 C        -7.2225476372        6.1715993805       -3.4909142260
 C        -8.4258204428        6.8591646817       -4.2623938406
 C        -9.9090284275        6.8431438084       -3.6840307443
 O       -10.2287912564        6.0936140032       -2.7628652746
 C       -10.8908809207        8.0238953044       -4.0527583266
 C       -10.6245320708        8.8142464308       -2.7962927038
 O        -9.5658162068        9.2596923296       -2.5515252313
 C       -11.7664225399        8.9442843031       -1.6603135039
 C       -11.0947229144        9.3111906406       -0.2957886435
 C       -10.1815852755        8.2416404601        0.2803333775
 O       -10.3029526586        7.0523600235        0.1586791831
 C        -8.8149034140        8.6668146121        1.0038643009
 C        -7.7309683590        8.5121705497       -0.0255631311
 O        -7.6311479762        7.5020505052       -0.7295769603
 C        -6.7664223252        9.6143603273       -0.1096950108
 C        -8.9401815370       10.0268581719        1.6774911601
 C        -8.3943739552        7.6113619328        2.1798906463
 C       -10.1922217675        8.8617209160       -5.2582649554
 C       -12.2873446509        7.5524565043       -4.5804466487
 C        -3.7600506199        5.0302883277       -4.9686810564
 C        -6.1818109783        4.1259789829       -5.6617263194
 C        -6.3668541900        1.5428817540        1.0432501926
 C        -8.2635808577        0.2699405164       -0.1766475856
 C       -13.2551903047        3.0895105513        4.1892095265
 C       -13.1617394783        1.0684099260        5.4793878004
 C       -13.8658404219       -5.1214154460        2.5878684072
 C       -16.0777584665       -4.0802027119        3.1377542682
 H       -12.0914148953       -2.5930840166        3.9658702830
 H       -12.2934645074       -3.9171240174        4.9028759436
 H       -12.4981360161       -2.3571207822        5.7044881072
 H       -16.2060230155       -1.4631871824        2.2729573178
 H       -15.0312750683       -0.7770750640        1.1125284735
 H       -14.2105889808       -0.9018198024        4.0004763940
 H       -15.5305062358       -0.1104224932        3.5415912005
 H       -10.9801091424        3.0510485230        2.6234374397
 H       -11.5914761058        1.5920052971        1.6406997357
 H        -9.1393079451        0.7256924671        2.1587711843
 H        -8.8118110697        2.2061328612        3.1835619149
 H        -6.2180724762        0.7520048409       -2.0568180766
 H        -5.1576503828        2.0527754949       -1.4917083140
 H        -7.2106057795        2.4939549611       -3.5856561996
 H        -5.7275049146        1.8856580220       -4.1322034726
 H        -7.0405635777        6.7042109808       -2.5860217708
 H        -7.5796473770        5.2386234203       -3.0999921608
 H        -8.5205776177        6.3534735209       -5.2672304633
 H        -8.0975157564        7.9061254617       -4.5629089167
 H       -12.2276759742        7.9427449704       -1.7248599991
 H       -12.3384155193        9.8524955036       -1.8860682849
 H       -11.7572200883        9.5769971500        0.4915568649
 H       -10.4785196258       10.2192325818       -0.5511544892
 H        -6.1234434211        9.4029802343        0.6858731876
 H        -7.3289320037       10.5946420719       -0.2032861534
 H        -6.2018883479        9.5571756480       -0.9354842979
 H        -9.2741928480       10.7064035643        1.0049672848
 H        -7.9801936916       10.2641562046        2.1587029683
 H        -9.8225504553       10.0077448870        2.4126330863
 H        -8.4508183020        6.4653745587        1.9676564167
 H        -8.9238778059        7.9491269181        3.1189038555
 H        -7.2874835275        7.8155360341        2.2238668960
 H       -10.7822512791        9.8330043404       -5.4121344445
 H       -10.0638622470        8.3657265020       -6.1426988992
 H        -9.2130951934        9.1787339932       -4.9562749942
 H       -12.5468889858        8.2862041474       -5.3095971045
 H       -13.0292686135        7.6600500526       -3.7954958511
 H       -12.2064141709        6.6311117808       -5.0791204013
 H        -3.6244047075        4.3986740941       -5.8298336323
 H        -2.9765195065        4.6190288625       -4.2891010222
 H        -3.5799602379        6.0872659685       -5.1592408132
 H        -5.7308179710        3.2047852571       -6.0324155812
 H        -6.2339819422        4.9419009119       -6.4162963042
 H        -7.1268073870        3.9945579118       -5.3110350580
 H        -6.5184895569        0.8057018058        1.7964251204
 H        -5.9648326369        2.4615499622        1.4213657746
 H        -5.7723044160        1.0886009835        0.2565837258
 H        -9.2197149313        0.3499194818       -0.6252426810
 H        -8.4811667046       -0.2111390844        0.6735841350
 H        -7.5531286826       -0.1516362554       -0.7116529193
 H       -12.5336999098        3.5063864172        4.9314557710
 H       -14.2995913555        3.3020361525        4.6086159799
 H       -13.2300927907        3.8229058523        3.3734510421
 H       -12.9444997345        0.0312478336        5.5302409063
 H       -14.2301020802        1.3585982623        5.7972219107
 H       -12.5531568806        1.7899850442        5.9592250310
 H       -13.2585196088       -5.0135695934        1.6536023215
 H       -14.4849226060       -5.9873651614        2.3749167651
 H       -13.1635606378       -5.5281875053        3.3318520405
 H       -16.6192129630       -4.4031536585        2.2941746459
 H       -16.5390195102       -3.1807135172        3.3731892653
 H       -16.2634196878       -4.7875036634        3.9034090224
 Na       -9.1719752187        5.3468936084       -0.6687258736
