117

 C       -12.7008945631       -3.0077414107        4.8656996175
 C       -14.1894444190       -3.0636551648        4.4775899296
 O       -15.0763432560       -2.4820860030        5.0509871869
 C       -14.5272741247       -3.7573819431        3.1760580466
 C       -14.1813570954       -2.4115476517        2.0906926737
 O       -13.1534763426       -2.4507819510        1.4904798077
 C       -15.1136612943       -1.1790044508        2.0996377565
 C       -14.6577401122       -0.1339620157        3.2147054039
 C       -13.7611319037        0.9568481012        2.8626441716
 O       -13.4930811873        1.3319230009        1.7468403681
 C       -12.8771095901        1.6346512074        4.2130668437
 C       -11.3324448242        1.2785516039        3.7782683418
 O       -10.7052732306        0.4966646337        4.3879759300
 C       -10.7716021643        2.0468481616        2.5442962690
 C        -9.3919169679        1.6997633669        2.2208960793
 C        -8.8771416275        2.3729893750        0.8610757282
 O        -9.4284546844        3.3717772774        0.4608941350
 C        -7.5764865997        1.6712094804        0.1777886733
 C        -7.2433353730        2.5231711398       -1.1300754476
 O        -7.8013182366        3.5684856612       -1.5065425313
 C        -6.0531709389        2.0110180355       -1.7471906016
 C        -6.1172002279        2.3716119949       -3.2808591004
 C        -5.4003352409        3.7768512297       -3.3629334643
 O        -4.9451819212        4.1984183729       -2.3111950914
 C        -5.3361556657        4.6516038291       -4.5896453103
 C        -5.9743618744        6.1421639975       -4.2936640492
 O        -5.5802143771        7.1553524688       -4.8962497604
 C        -7.3279003443        6.0806737236       -3.4446239927
 C        -8.4677461093        6.7066744925       -4.2917540393
 C        -9.8390859953        6.7077536540       -3.6780360837
 O       -10.2948520153        5.9401358621       -2.8529103877
 C       -10.7846958763        7.9138512329       -4.2301524886
 C       -10.6460543369        8.7759529996       -2.8268486257
 O        -9.4990723386        9.1819371860       -2.6806864434
 C       -11.6500431245        8.8869971174       -1.6089246392
 C       -10.9553972567        9.3361701416       -0.3072619055
 C       -10.0770242412        8.2920684670        0.3546779799
 O       -10.3423391682        7.0529233285        0.3099410826
 C        -8.7569905774        8.7918608407        1.0782389051
 C        -7.6234900826        8.5044544544       -0.0721380522
 O        -7.6368687471        7.4102460622       -0.6870719859
 C        -6.5446551779        9.6523015703       -0.2659772563
 C        -9.0064463904       10.2276741903        1.7117073330
 C        -8.4635426255        7.7340705347        2.2152373407
 C       -10.3962408030        8.8754653940       -5.3725520229
 C       -12.1660501284        7.3358154079       -4.6816602411
 C        -3.7436943814        4.7155798196       -4.7531936146
 C        -6.2625029121        4.0680259715       -5.6798296136
 C        -6.4274231452        1.5981448325        1.1288472119
 C        -8.0738896254        0.2359393303       -0.1835164009
 C       -13.1481956038        3.1834982995        3.9791213908
 C       -13.3893100246        1.0787586167        5.5858100454
 C       -13.6576153679       -4.8437503760        2.6815608910
 C       -16.0686666369       -4.1554637361        3.0563076560
 H       -12.1388374557       -2.6193253541        4.0599368090
 H       -12.1933423722       -3.9876867917        4.9468608634
 H       -12.5433983658       -2.3204205810        5.6586173720
 H       -16.1224693584       -1.4376292638        2.2477335811
 H       -15.1415856872       -0.7801753810        1.0124380525
 H       -14.2032231352       -0.7362112385        3.9558214231
 H       -15.6243501960        0.1181508128        3.6744846066
 H       -10.9016691264        3.1559491086        2.7611796596
 H       -11.5463960460        1.7388520410        1.8309552190
 H        -9.2714730721        0.6096746078        2.0065718655
 H        -8.6322759943        2.0880965058        2.8353463491
 H        -5.8705522844        0.8743940876       -1.6577723770
 H        -5.2044979817        2.5795509638       -1.3822205453
 H        -7.1365824717        2.3423607612       -3.6788014475
 H        -5.6779812529        1.6314186469       -3.9959311843
 H        -7.3463341668        6.6513570047       -2.4778624843
 H        -7.5754652670        5.1042696480       -3.1366315423
 H        -8.6415913717        6.2334752837       -5.3615073331
 H        -8.1489616096        7.7145088279       -4.5808171859
 H       -11.9373327190        7.9056368074       -1.5332389124
 H       -12.4178560445        9.6964493511       -1.8213612938
 H       -11.7295911926        9.3345381292        0.4457116568
 H       -10.5678263546       10.3258600542       -0.3337606089
 H        -6.0503839865        9.6166339418        0.7248375945
 H        -6.9521320091       10.5469147009       -0.6838877738
 H        -5.7176643997        9.3481492252       -0.9171911283
 H        -8.5948128429       11.0151209706        1.0622226639
 H        -8.5313210883       10.2645455820        2.6668803395
 H       -10.0300131144       10.3958496107        1.8047888966
 H        -8.6423749425        6.7596215810        1.8174728025
 H        -9.1558974066        7.9789472246        3.1463592107
 H        -7.4094021151        7.7148381344        2.4046975297
 H       -10.9152713970        9.8006467342       -5.3145465867
 H       -10.5461659567        8.3558642480       -6.3598736454
 H        -9.3182540001        9.0982310034       -5.3736277525
 H       -12.6343483607        7.8420993499       -5.4988376914
 H       -12.7845261409        7.4334627793       -3.8275471227
 H       -11.9737686683        6.2879020187       -4.9364734616
 H        -3.4145571504        4.0537197833       -5.5711239209
 H        -3.2537512181        4.3481649716       -3.9202239211
 H        -3.4086822886        5.7518329649       -4.8864978783
 H        -5.6645186087        3.2090691978       -6.0352064074
 H        -6.6349634725        4.8126502068       -6.4082719565
 H        -7.1988189119        3.7123502498       -5.1729849491
 H        -6.7681127563        0.8269527715        1.8956986396
 H        -6.4033672999        2.5672896410        1.6445142138
 H        -5.4423565385        1.2676661435        0.6420552126
 H        -9.0518675943        0.2341698218       -0.5057419154
 H        -8.1613468010       -0.3124173711        0.7471644009
 H        -7.2395827873       -0.2479285057       -0.8288159131
 H       -12.4563898522        4.0029330374        4.4308073020
 H       -14.1457353156        3.4475893271        4.3141692022
 H       -13.1739505104        3.4798701750        2.9530212422
 H       -12.9071915612        0.0818127574        5.5666739162
 H       -14.4826763225        0.9805898539        5.6220728813
 H       -13.0670473994        1.8476654105        6.3084142580
 H       -13.0191580566       -4.4920280328        1.9511147661
 H       -14.1547049891       -5.7728644033        2.1759784502
 H       -12.9706992074       -5.3905073781        3.4234252573
 H       -16.2826746925       -4.6288179923        2.0954072416
 H       -16.6447058253       -3.2507218007        2.9223902767
 H       -16.5289494345       -4.8315284776        3.8201802376
 Na       -9.2255952127        5.2768436515       -0.7243748072
