117

 C       -12.8271091235       -2.9518257385        5.1503248414
 C       -14.2152703988       -2.8504665453        4.5742766241
 O       -15.2433185815       -2.5311749365        5.2258003481
 C       -14.4511554189       -3.4817848444        3.1140220919
 C       -14.2024134471       -2.1933339516        2.0845245467
 O       -13.4282272702       -2.1285123993        1.1572015918
 C       -15.1530551534       -0.9885923063        2.1898846252
 C       -14.9324327626        0.0493161266        3.3306216398
 C       -13.9230664572        1.1463133203        2.9536552144
 O       -13.8217582436        1.3981154497        1.7931061918
 C       -12.9768070143        1.8307108360        4.1155750429
 C       -11.4533068497        1.3992907841        3.8975047116
 O       -10.9364255927        0.5564834418        4.5950000221
 C       -10.7531219229        2.2482940466        2.8076102066
 C        -9.5342274499        1.4225014774        2.2521628051
 C        -8.9661697837        2.2785227830        0.9791985458
 O        -9.5069668810        3.3487250004        0.7563010931
 C        -7.6340684924        1.6420515115        0.2133943083
 C        -7.1786994605        2.3321317970       -1.1061921534
 O        -7.7285718311        3.3006962172       -1.5654798456
 C        -6.0031270808        1.7216578020       -1.7160603707
 C        -5.7192422949        2.3211515840       -3.1411244393
 C        -5.4006059007        3.7346506259       -3.2705751206
 O        -5.1656577309        4.3831915712       -2.2289361992
 C        -5.3563507280        4.4796055209       -4.6888795306
 C        -5.9794253267        5.8946766642       -4.3538826591
 O        -5.3802842190        6.8892247508       -4.5758254638
 C        -7.3422639364        5.9856860763       -3.6536986424
 C        -8.3867745174        6.5663581692       -4.6024013167
 C        -9.7603863696        6.5787612143       -3.9361345724
 O       -10.0485262034        5.7282140830       -3.0712119725
 C       -10.7487932506        7.6577714108       -4.1599233106
 C       -10.5173575268        8.6407785870       -2.9638605497
 O        -9.5321956183        9.2762212277       -2.8431866946
 C       -11.4540993526        8.4973241388       -1.7772147168
 C       -10.9522812258        9.3125431140       -0.5624370431
 C       -10.0711684579        8.3739732590        0.2922620256
 O       -10.3949951640        7.2306185447        0.4156924928
 C        -8.7983372038        8.8340035977        1.0625957129
 C        -7.6071811711        8.4343517577       -0.0598066801
 O        -7.6064944883        7.2827058356       -0.3999005883
 C        -6.4842195891        9.3959584315       -0.3776893334
 C        -8.6755817300       10.4249885816        1.4443570826
 C        -8.5027251082        7.9573797718        2.3659121449
 C       -10.4496876847        8.5203638590       -5.4141696665
 C       -12.2032765116        7.0899634699       -4.0978847130
 C        -3.9025770309        4.6134531997       -5.2168544533
 C        -6.1051671889        3.9089889974       -6.0441197308
 C        -6.5429054839        1.8767290492        1.3712124888
 C        -7.8927575907        0.0880929531       -0.1671088456
 C       -13.1631911057        3.3545459501        3.9012768096
 C       -13.3265189909        1.4349369672        5.6629174794
 C       -13.3745419193       -4.4732397102        2.7897674295
 C       -15.8570612197       -4.1044569489        2.8650138880
 H       -11.9099926865       -2.8699016269        4.4962998426
 H       -12.7817533000       -3.9558070883        5.3731266610
 H       -12.6710213732       -2.2436903802        6.0159703353
 H       -16.1907308820       -1.5179485214        2.2446635992
 H       -15.1317442684       -0.5760588738        1.2781216159
 H       -14.8138827411       -0.5845610424        4.2803339900
 H       -15.9013010712        0.6021305997        3.4385491286
 H       -10.3546825492        2.9766791490        3.4408020137
 H       -11.5204259086        2.5152920535        2.1082513464
 H        -9.7700888602        0.5062372066        1.7862405737
 H        -8.6366726958        1.3364480575        2.9225262894
 H        -6.0650627607        0.7045232685       -1.9617722417
 H        -5.0476972401        1.8859577224       -1.1232070233
 H        -6.6055859152        2.2041547174       -3.7563122430
 H        -5.1034576710        1.6827375617       -3.7063912677
 H        -7.1492764298        6.4978331218       -2.7137972251
 H        -7.7049910566        4.9258373362       -3.3541687590
 H        -8.4246807291        5.9680661518       -5.4499962304
 H        -7.9614653508        7.5389553940       -4.9598448103
 H       -11.4421981525        7.3820342587       -1.4263939502
 H       -12.3985744677        8.8158100405       -2.0957881997
 H       -11.7993919504        9.8122613033       -0.0478914960
 H       -10.2330561554       10.1451445240       -0.8298785450
 H        -6.4409666601       10.1930499296        0.3544786450
 H        -6.8656699633        9.7070244488       -1.4330716652
 H        -5.5164813700        9.0224341116       -0.4995999759
 H        -7.6910001430       10.7500412182        1.3328286555
 H        -8.9379769414       10.5623612247        2.5434315175
 H        -9.4811814785       11.0914865812        0.8953720972
 H        -8.1232836619        7.0077789024        2.0741603231
 H        -9.3943981659        7.9362922576        2.9333797542
 H        -7.7274957604        8.3386211326        2.9632972072
 H       -11.3252160865        9.2292839146       -5.6443757430
 H       -10.1964105857        7.9401359781       -6.2336817974
 H        -9.6086656159        9.1903748281       -5.2057300868
 H       -12.8582736999        7.8763166191       -4.5390574399
 H       -12.5926172194        6.6650912559       -3.1219774694
 H       -12.0962147736        6.2760646223       -4.7974300069
 H        -3.4575154333        3.6147974592       -5.2881538663
 H        -3.3520884104        5.3068314451       -4.4850586827
 H        -3.8538682166        5.1135745626       -6.1853192400
 H        -5.8967149011        2.8332543178       -6.2055907745
 H        -5.8088441154        4.5613465940       -6.9031327122
 H        -7.1177955362        4.1560371243       -5.8679553083
 H        -6.8589475814        1.3253485162        2.2314188360
 H        -6.5433762615        2.9412239013        1.6669214971
 H        -5.6053098934        1.4750139621        1.0160392874
 H        -8.8627738410        0.1348422710       -0.8698834224
 H        -8.3280704783       -0.4486225496        0.7129712025
 H        -7.0149371903       -0.4105495010       -0.5093938819
 H       -12.5102551658        3.9033850385        4.4782059651
 H       -14.1399471344        3.6649100100        4.2765207388
 H       -12.9570193615        3.8607074278        2.9570980033
 H       -13.1575152234        0.4237820467        5.9281043124
 H       -14.4025637343        1.6644576372        5.6583395565
 H       -12.7402198493        2.2036839607        6.1631876796
 H       -12.3064096529       -4.1371302463        2.9738785796
 H       -13.3465017426       -4.7263328787        1.7981002158
 H       -13.4699728701       -5.3794853101        3.2414174727
 H       -15.9907145085       -4.5882784752        1.8555970355
 H       -16.8005713748       -3.5286459823        3.0291477205
 H       -15.8572531694       -5.0028240155        3.5196755202
 Na       -9.2021016327        5.4472749391       -0.9746342737
