117

 C       -13.1360800262       -2.5737556794        5.4032507689
 C       -14.4570032486       -2.6752860271        4.6937765508
 O       -15.5631175667       -2.5990253162        5.2351071605
 C       -14.2161018512       -2.9250794779        3.0532463536
 C       -14.3125843815       -1.6125360881        2.1937947021
 O       -13.6259200709       -1.5481841295        1.2499533578
 C       -15.4833522013       -0.5313786037        2.5028305508
 C       -14.9745884430        0.3839218980        3.6710599467
 C       -14.0698545309        1.5173701261        3.2244594734
 O       -13.9557257145        1.6877571163        2.0572333689
 C       -13.2625773203        2.2985479986        4.2460175528
 C       -11.6825480006        1.7493742146        3.8418015633
 O       -11.3423006683        0.6768583102        4.2518589742
 C       -10.9504177542        2.5340323441        2.7369216987
 C       -10.1203506869        1.5355135678        1.8406275492
 C        -9.0613326236        2.2025582373        0.9571105698
 O        -9.1481864594        3.4492851250        0.9559418971
 C        -7.5993650538        1.6986462807        0.4396654634
 C        -7.2332016577        2.2877627050       -0.9999015867
 O        -7.8712884824        3.0122672543       -1.7208261582
 C        -5.8856213772        1.7471279894       -1.4491639177
 C        -5.6725699339        2.1769083143       -2.8850548286
 C        -5.4287811348        3.5731702465       -3.2638715941
 O        -5.0872499150        4.3880687689       -2.3718666487
 C        -5.2663961127        4.0661884174       -4.7519121691
 C        -5.8340738065        5.6156196312       -4.5026487880
 O        -5.1496133115        6.6010976409       -4.7618669407
 C        -7.2370507112        5.7189270014       -3.8798708396
 C        -8.3239444406        6.5891341134       -4.6242455658
 C        -9.6624569805        6.3899142058       -3.8966997142
 O        -9.8116529316        5.5285257849       -2.9968642332
 C       -10.9089500311        7.1863481403       -4.2468540388
 C       -10.6824180508        8.4017134625       -3.2259539136
 O        -9.7874517844        9.1217852023       -3.3995531950
 C       -11.5834624631        8.5896482506       -1.9226367261
 C       -10.7414907589        9.2912789601       -0.7758722421
 C        -9.8628193947        8.2273837904        0.1088747274
 O       -10.1207374905        7.0533518019        0.3357656877
 C        -8.6061008900        8.8056949382        0.8130984661
 C        -7.4928204589        8.0461123945       -0.0186823807
 O        -7.3995784932        6.8054100356       -0.1100313308
 C        -6.3538531470        8.8677514430       -0.5581995420
 C        -8.4425840703       10.2697669926        0.9102098045
 C        -8.4471093815        8.3299387525        2.2929204589
 C       -10.8594040173        7.9594076169       -5.6482455916
 C       -12.1696360075        6.3877225901       -4.0629099535
 C        -3.6993817730        4.1272030818       -5.0039498593
 C        -6.0951659053        3.4688146390       -5.9015561822
 C        -6.5799899680        2.0852348719        1.4784838080
 C        -7.7048962658        0.1182622511        0.1986015551
 C       -13.5239239325        3.8062297138        4.0515150542
 C       -13.6466051858        2.0872966522        5.7462930086
 C       -12.8670600739       -3.6831933938        2.7651593217
 C       -15.3290056315       -3.9836380745        2.5754153982
 H       -12.4249970871       -1.8569780824        4.9347327565
 H       -12.7132869774       -3.4757651015        5.1942686377
 H       -13.0861105306       -2.3624052935        6.4940443931
 H       -16.2471880471       -1.1677853869        2.9887237344
 H       -15.9647433381       -0.0412774267        1.6703525074
 H       -14.3884985013       -0.2717743546        4.3876972872
 H       -15.9918731572        0.6419805225        4.1037763813
 H       -10.2984855998        2.8909952093        3.4378516236
 H       -11.6259294029        3.1714418263        2.2045921803
 H       -10.7715427321        1.1188853034        1.0770196948
 H        -9.7324030384        0.6970517917        2.5247157209
 H        -5.7991407039        0.6347667603       -1.4010574783
 H        -5.0472130655        2.0952938493       -0.8148589205
 H        -6.4483726863        1.7012784593       -3.4668948142
 H        -4.8308297421        1.8327005129       -3.4053408090
 H        -6.9335867826        6.1052156008       -2.9191775605
 H        -7.6406571391        4.6469066738       -3.8478586051
 H        -8.4840511648        6.1606495443       -5.5504324755
 H        -7.8021826626        7.5600134796       -4.7675099819
 H       -12.0841617935        7.6351622576       -1.6101473635
 H       -12.3744478342        9.2164342882       -2.1495187712
 H       -11.3364980164        9.7120116273        0.0091983404
 H       -10.2056480172       10.2144636480       -1.1183017783
 H        -5.9747353096        9.5903775314        0.2026006580
 H        -6.9111279025        9.5107070948       -1.4040614863
 H        -5.6101270300        8.2932718077       -1.0019191148
 H        -8.0325261201       10.5347784561        1.8259830864
 H        -9.4349518654       10.7651919535        0.6890478447
 H        -7.9963239974       10.6371402941       -0.0295827822
 H        -8.7906817722        7.4054100017        2.5334749700
 H        -8.9107665142        9.0921111247        3.0087930476
 H        -7.4712789564        8.3950248133        2.4907896581
 H       -11.4119360032        8.9881061355       -5.5907481842
 H       -11.2957638891        7.4725709561       -6.4747391000
 H        -9.8259790231        8.2905049849       -5.8552367021
 H       -12.9923751510        6.8995179913       -3.5609094302
 H       -11.8976493774        5.4387925070       -3.5427211131
 H       -12.5917351088        6.1974566302       -5.0195545129
 H        -3.2187278065        3.2449750212       -4.7614163647
 H        -3.2460136271        5.0389620334       -4.6533182647
 H        -3.5806964906        4.0586890473       -6.0541123611
 H        -5.3633488563        2.8601194079       -6.5395179906
 H        -6.2492738575        4.3806096097       -6.5587874617
 H        -6.8179105156        2.8518957778       -5.5093495752
 H        -6.9637398904        1.7944650239        2.5201212688
 H        -6.4740805114        3.1880746358        1.3847048442
 H        -5.6450284047        1.4157696261        1.2746641618
 H        -8.6326765241       -0.0178579947       -0.3491205371
 H        -7.7582602057       -0.3725482848        1.2269867673
 H        -6.8158624761       -0.5439585497       -0.2964250150
 H       -12.7244052879        4.4468048604        4.3044207968
 H       -14.3851968351        4.2341291948        4.5811337711
 H       -13.5449180345        4.0762070191        3.0165591558
 H       -13.0969481332        1.2078031480        6.0254152525
 H       -14.7483208893        1.9023213681        5.6340640966
 H       -13.1220490426        2.7293519248        6.4051002822
 H       -12.0445293699       -3.2940591342        3.2721264779
 H       -12.5895743093       -3.5313681186        1.7143677716
 H       -12.7079537155       -4.7163527616        2.9723719280
 H       -15.4572162288       -4.0825453099        1.4366273487
 H       -16.3265737024       -3.7123915233        2.9773339004
 H       -15.2723567665       -5.0056714650        3.0285425803
 Na       -8.8242748482        5.1450844100       -0.6358750684
