117

 C       -12.6325509847        2.7141241280      -10.6211604096
 C       -12.9360845998        1.3227754680       -9.9168590599
 O       -14.0548910991        1.0427154645       -9.6285577768
 C       -11.8220624403        0.1974527453       -9.9711437930
 C       -11.5660917907       -0.0469638765       -8.4671813567
 O       -11.4253192516       -1.1578674425       -8.0519707897
 C       -11.3784300416        1.2361690074       -7.6307111979
 C       -10.6128068260        0.9684204558       -6.2602885896
 C       -10.3108433167        2.2347385227       -5.5081445110
 O       -10.5660398043        3.3800593738       -5.8875996957
 C        -9.8012288520        1.9555860662       -4.0109749676
 C        -9.0106275676        3.1796931804       -3.4854154515
 O        -7.8140684976        3.1894681389       -3.4256864683
 C        -9.6815953143        4.5343758773       -3.1666340782
 C        -8.7411623923        5.6466397874       -2.6550465777
 C        -8.8183491772        5.8979662989       -1.1482629750
 O        -8.9143393924        4.8638614950       -0.4545232167
 C        -8.4533287094        7.3599797352       -0.4292095927
 C        -9.6195899608        7.5763426268        0.6180880368
 O       -10.0703526676        6.5754105206        1.1192465554
 C        -9.9441287708        8.9894000460        1.0891442269
 C       -10.7746839498        8.9680018012        2.4771562361
 C       -10.1694604197        7.9458441754        3.4959705385
 O        -8.9353788240        7.7855307318        3.4079825954
 C       -11.0364819876        7.1002884924        4.4830933475
 C       -10.0558520681        5.9442924199        5.0287732435
 O        -9.5370097824        5.1291177089        4.2816197027
 C        -9.6426822276        5.7362064458        6.5126470861
 C        -9.5334004430        4.2320206924        6.8638164244
 C       -10.7757517292        3.3780398717        6.7315227157
 O       -11.9132985403        3.9224644286        6.7529525686
 C       -10.7128235816        1.8726200038        6.7658883053
 C        -9.5040585038        1.2528654487        5.9233803417
 O        -8.3912899532        1.2584636488        6.3389616872
 C        -9.9176492115        0.6236341284        4.5761613748
 C        -8.6567414424        0.5345534952        3.5854038249
 C        -8.3049400832        1.8766582596        2.9316117367
 O        -9.1938822450        2.6289993793        2.5579399011
 C        -6.8280541430        2.1819566719        2.4474792441
 C        -6.4681782955        3.5544859624        3.0848797332
 O        -6.8010313509        4.6326277192        2.6920463358
 C        -5.7306402990        3.6452403311        4.3774099389
 C        -5.7653598730        1.0541007261        2.9082708441
 C        -6.8537083651        2.4032446708        0.8877458846
 C       -10.3986551431        1.6277241172        8.3508318771
 C       -12.1053288591        1.1790204896        6.4744724264
 C       -11.6028116160        7.9479011526        5.6253338540
 C       -12.1853042623        6.4150503158        3.7770765761
 C        -7.1804829422        7.2026730874        0.4348411755
 C        -8.2789854409        8.3539423400       -1.5794919110
 C       -11.0985672176        1.7346602749       -3.1434738746
 C        -8.9247388958        0.7115432595       -3.8011087906
 C       -12.5135751857       -1.0624993069      -10.6003052727
 C       -10.5890169457        0.5721765491      -10.7240839577
 H       -13.0804217692        3.3941248919       -9.9374257204
 H       -13.1410224635        2.6551457309      -11.6515964764
 H       -11.5901637630        2.9387477353      -10.6987109511
 H       -12.3259068058        1.7223423890       -7.3407124222
 H       -10.8857126585        2.0613420414       -8.2410550667
 H        -9.6687235642        0.5117935232       -6.5982333318
 H       -11.2475590275        0.2217691909       -5.7338520711
 H       -10.5539125524        4.3383475966       -2.5631520853
 H       -10.1882712286        4.9083039609       -4.1217765402
 H        -8.6339374847        6.5427246437       -3.2303780321
 H        -7.8287317287        5.1455884941       -2.9926766134
 H       -10.4196664283        9.5797400878        0.2857565343
 H        -8.9408331092        9.4251008632        1.3997215421
 H       -11.7801590034        8.6311978611        2.1829115566
 H       -10.8776327353        9.9673895767        2.8652724696
 H       -10.3119991295        6.3232106186        7.1958555251
 H        -8.6635934698        6.2344478265        6.6696579271
 H        -9.3088273478        4.2174768339        7.9522732277
 H        -8.6747820720        3.8534822576        6.2363872526
 H       -10.8055473345        1.1906269427        4.1896869029
 H       -10.2651108032       -0.4170293724        4.7239535665
 H        -8.9461616449       -0.2060405756        2.8682819770
 H        -7.8069998827        0.0885071789        4.0438010675
 H        -5.6272687307        4.6920219062        4.6857761533
 H        -4.6835465415        3.3719524051        4.3026580889
 H        -6.3288322642        3.1343982159        5.0898624235
 H        -6.0988517767       -0.0352169554        2.6166225449
 H        -5.6624423843        0.9833898713        4.0211244896
 H        -4.7983225145        1.2292405051        2.4793215169
 H        -7.8612391051        2.9560334235        0.5848763804
 H        -6.8070503708        1.4663465937        0.4076285911
 H        -6.0440319931        3.0546789492        0.5216909561
 H        -9.3325499370        1.7113831238        8.5142128625
 H       -10.7845068989        0.7292957241        8.8899505458
 H       -10.8920720709        2.4511259750        8.9191442843
 H       -12.0177790410        0.1825614839        6.9863698601
 H       -12.1451851433        0.9827934483        5.4618918329
 H       -12.9011904337        1.8277034270        6.7890829484
 H       -12.3861926766        8.5090797152        5.1065410848
 H       -10.9339419456        8.6488001911        6.1822891243
 H       -12.0074369057        7.2467421407        6.3653187773
 H       -11.6825994982        5.8740436219        2.9654388312
 H       -12.9628817641        7.1529625719        3.4213644059
 H       -12.7917148666        5.7409881234        4.5242894376
 H        -6.8121778042        8.1786400355        0.6405240212
 H        -6.4393958070        6.8266236386       -0.1888594906
 H        -7.3257341753        6.5243436802        1.3338458540
 H        -7.4576081159        8.1388725727       -2.1859382040
 H        -8.2647733609        9.3015756277       -1.1155182761
 H        -9.1632904744        8.3470685659       -2.2877733612
 H       -11.6272871384        0.9418713292       -3.6897217718
 H       -11.6636274818        2.6437167606       -3.2102199616
 H       -10.9593611728        1.5222497644       -2.1371388919
 H        -9.4377496084       -0.1625057582       -4.2329509634
 H        -8.8846245811        0.4706658197       -2.7281970407
 H        -7.9604923716        0.6622918734       -4.3705478336
 H       -13.2195398685       -1.4783863526       -9.8696263340
 H       -11.7599422378       -1.8305573653      -10.8073959033
 H       -12.8753272289       -0.8425343159      -11.5491862509
 H       -10.1413713955        1.5376582989      -10.4579235443
 H       -10.7155179264        0.5085547150      -11.8316010056
 H        -9.6817872455        0.0027808583      -10.5362253905
 Na       -8.9550032716        4.8847491727        1.8847707693
