117

 C       -13.4190889389       -2.2160861236        5.5292646161
 C       -14.4532016857       -2.4285028384        4.5029005288
 O       -15.6520924846       -2.5816519967        4.7706863338
 C       -14.0751879086       -2.7445963800        3.0447438327
 C       -14.3920989204       -1.2969851690        2.3620898473
 O       -13.6661698792       -0.8123875464        1.5277919858
 C       -15.4905152993       -0.4927036584        2.9364556486
 C       -15.0812593327        0.6058917392        4.0798635773
 C       -14.3306468634        1.7792695435        3.2342254554
 O       -14.3836660397        2.1048940629        2.1018299847
 C       -13.1946412124        2.4662398632        4.1284146552
 C       -11.8823273531        1.7969036690        3.6267029143
 O       -11.3557467986        0.8275371661        4.0836064876
 C       -11.3573592134        2.5258281655        2.3055445050
 C       -10.1297934682        1.8444876970        1.8792171940
 C        -9.0304168380        2.6327762979        1.2014257530
 O        -9.0970385033        3.8236928548        0.8978155499
 C        -7.8363603201        1.7451290558        0.7349850727
 C        -7.3893900676        2.2829032184       -0.8031731435
 O        -8.1215477663        3.0019663226       -1.4795905650
 C        -6.1615572311        1.5710291138       -1.2462322749
 C        -5.7132085640        1.9418100448       -2.6829075135
 C        -5.2203010051        3.4319808615       -2.9763365190
 O        -4.9046694813        4.1931957542       -2.0368509451
 C        -5.1487113742        4.0026864146       -4.4733387198
 C        -5.9378986653        5.4070498380       -4.5909183632
 O        -5.4872347146        6.2278076721       -5.3731006386
 C        -7.1727248083        5.6195513138       -3.7378185284
 C        -8.2906900033        6.5043787258       -4.3627876598
 C        -9.6968236621        6.2989276501       -3.6500589940
 O        -9.8333452894        5.6640590530       -2.6389553075
 C       -10.9351749143        7.0515319480       -4.1965722567
 C       -10.8126081883        8.3059434433       -3.3423708400
 O        -9.9522366921        9.1017431567       -3.5957396971
 C       -11.6043209498        8.2856524774       -2.0554944751
 C       -10.8039415931        9.0066598088       -0.9538070412
 C        -9.6725697162        8.0830620945       -0.3123395411
 O        -9.9416415505        6.8881740861       -0.1664350901
 C        -8.3619994425        8.6467576104        0.4513206410
 C        -7.0459841969        7.8376078105       -0.2418451221
 O        -7.0168464577        6.6398263609       -0.0817810529
 C        -5.8156717292        8.5972659433       -0.6152120727
 C        -8.3033364586       10.1578176624        0.5514268652
 C        -8.7009702584        8.1348974265        1.8366882623
 C       -10.7592566202        7.2778106142       -5.6602142369
 C       -12.1222912787        6.0920182984       -3.8802152754
 C        -3.7574099528        4.0809451188       -5.2083916010
 C        -5.9217803603        3.0507729382       -5.4730813474
 C        -6.6103450225        2.0695673215        1.7076776793
 C        -8.0843235867        0.2095923782        0.6359463822
 C       -13.2556394647        3.9482900786        3.7660753960
 C       -13.3432540403        2.2754953534        5.6402757955
 C       -12.6497865538       -3.1999228142        2.6937968238
 C       -15.0295805083       -3.7551530097        2.5064804765
 H       -12.5983471445       -1.5707997246        5.1242460948
 H       -13.0293539836       -3.1235111016        5.7304066495
 H       -13.7436838274       -1.7917400371        6.5276205999
 H       -16.3874940224       -1.0960504186        3.1308626599
 H       -15.7453471931       -0.0011113116        2.1022467046
 H       -14.4791270227        0.1868463726        4.8952449651
 H       -15.9766667539        1.1185126550        4.3291382557
 H       -11.0619556625        3.5549913475        2.7246251748
 H       -12.2227434911        2.4495494590        1.5899014261
 H       -10.2717743347        0.8741185270        1.4392170386
 H        -9.5866349085        1.6415830920        2.8564651472
 H        -6.1159089318        0.5290819525       -1.1802118661
 H        -5.2821160391        1.8604058055       -0.5192724878
 H        -6.5620586141        1.7765150109       -3.4344163609
 H        -4.9000418268        1.2427718850       -3.0002601958
 H        -6.7885199907        6.0814875077       -2.8329580452
 H        -7.6686340081        4.6760129004       -3.4869429577
 H        -8.4345116461        6.0825034073       -5.3887615483
 H        -8.1582765231        7.6394213860       -4.4425163208
 H       -12.0207778586        7.2667817817       -1.7765022203
 H       -12.5113574327        8.8108033432       -2.2518462340
 H       -11.3859253259        9.3678725010       -0.1024639864
 H       -10.3919837174        9.9280267083       -1.3010364899
 H        -5.3213882497        8.8232317607        0.3171964766
 H        -6.0239340187        9.6479382075       -1.0826329391
 H        -5.2482592026        7.9599128952       -1.1548117803
 H        -7.3312546576       10.3796802364        0.6584251504
 H        -8.6944994149       10.4894678559        1.5076083097
 H        -8.7962291780       10.7429747365       -0.2888796686
 H        -8.6967223903        7.0320276961        1.7829815839
 H        -9.8113728925        8.3112280554        2.1624768735
 H        -8.0665210520        8.5340893621        2.6432602498
 H       -11.7501120755        7.6359164427       -6.1148172388
 H       -10.4783254705        6.4994083691       -6.2773436323
 H       -10.0359644749        8.0837895552       -5.7162769098
 H       -12.9362476194        6.2042738161       -4.6027108797
 H       -12.5206139923        6.0511394416       -2.8701944092
 H       -11.7726545504        5.1316223058       -4.1794419194
 H        -3.5204699891        3.2035719627       -5.8302081498
 H        -2.8967110843        4.3634072546       -4.4843331614
 H        -3.8275436311        4.8451851199       -5.9812130735
 H        -5.7696219074        2.0394057451       -5.1244504590
 H        -5.4234903457        3.2834856098       -6.4318149901
 H        -6.9433446298        3.1964863892       -5.3927313858
 H        -6.9429874073        1.6639540156        2.6007109209
 H        -6.3313899728        3.0710743475        1.7476925355
 H        -5.8073927148        1.4680679565        1.3780448967
 H        -8.7221881821       -0.0369174250       -0.2035495293
 H        -8.4272215211       -0.1852194947        1.5840994214
 H        -7.2224658613       -0.4076730497        0.1948751880
 H       -12.5770475191        4.6161415553        4.2216985963
 H       -14.2404247904        4.4238618323        4.0727145890
 H       -13.2333589620        4.1928037310        2.6646765659
 H       -12.5206434607        1.6605273857        6.0080746109
 H       -14.3850944494        1.9490986709        5.8842051561
 H       -13.1908438532        3.2285811545        6.1661768651
 H       -11.9402162715       -2.5044640047        2.1847332113
 H       -12.5170640846       -4.1832184883        2.1310868996
 H       -12.0901052413       -3.4232422999        3.6642850569
 H       -14.8711770628       -4.0370333384        1.4910633538
 H       -16.0489327352       -3.4674258335        2.6253046661
 H       -15.0210975645       -4.6473554299        3.0635684224
 Na       -8.7273981581        5.0332871711       -0.6449960724
