117

 C       -13.4335491947       -2.1487851398        5.5876158459
 C       -14.4837125372       -2.5091320924        4.5523972035
 O       -15.6545508334       -2.5939019280        4.8282955411
 C       -14.0327949066       -2.5569466521        3.0618960161
 C       -14.2926638090       -1.0860696064        2.3928003623
 O       -13.5614122845       -0.6402172587        1.5171065993
 C       -15.6473391091       -0.3533538986        2.9003032694
 C       -15.1911303359        0.6634369651        3.9315275560
 C       -14.3538245325        1.7337567744        3.3574152146
 O       -14.7662819731        2.2172319935        2.3156750616
 C       -13.2135168183        2.5875173489        4.1733885045
 C       -11.8662323866        1.9508939027        3.5299466182
 O       -11.2916279769        0.9371088936        3.9268697597
 C       -11.3807534314        2.4929569548        2.1029191102
 C       -10.0446710608        1.8421767004        2.0663609849
 C        -9.0541108056        2.5986801594        1.2404869835
 O        -9.2244758319        3.8097749280        1.0551057083
 C        -7.7858576448        1.8116507495        0.7546204153
 C        -7.3753594667        2.1983459313       -0.6956620516
 O        -8.0457360114        2.9233127661       -1.3696012936
 C        -6.2781971504        1.4220194772       -1.2923462619
 C        -5.7684673338        2.0541270739       -2.6445855030
 C        -5.1259748056        3.4473266450       -2.9155055451
 O        -4.8646218069        4.2625575971       -2.0507698268
 C        -5.1573431513        3.9144093604       -4.4491485773
 C        -5.9724852252        5.3146585234       -4.5746128961
 O        -5.7124539060        6.0436255568       -5.5096337640
 C        -7.1247013242        5.4958441091       -3.6044232070
 C        -8.2378390258        6.3267484486       -4.3003558517
 C        -9.6466880533        6.1763264540       -3.6147176769
 O        -9.8074571067        5.5114352205       -2.5702255306
 C       -10.8624637037        6.8808927886       -4.2611521074
 C       -10.8158473520        8.3538073557       -3.3867663604
 O       -10.0835331374        9.2054294105       -3.7399296481
 C       -11.6369504905        8.4696920920       -2.0460755987
 C       -10.7399798604        8.9842046084       -0.8878639507
 C        -9.6671424752        8.0288582115       -0.3956426957
 O        -9.7752468729        6.8257895652       -0.3734506622
 C        -8.3734380239        8.5243806324        0.3405873952
 C        -7.0044796032        7.7407992304       -0.1329153431
 O        -6.9425655113        6.5155082369       -0.2978013750
 C        -5.8193025635        8.5743440570       -0.5453918030
 C        -8.2207875454       10.1684104735        0.3800408347
 C        -8.6586665349        8.0508931381        1.7854001763
 C       -10.6545282759        7.0609255271       -5.8013576833
 C       -12.1012266836        5.9510384155       -3.9301597916
 C        -3.8032103266        4.2148898695       -5.1145482100
 C        -5.9708245876        2.7820183676       -5.3700290517
 C        -6.5970704032        2.0177896399        1.7930385647
 C        -8.0699230159        0.3597560277        0.7347966062
 C       -13.3478180833        4.0165130547        3.8240690264
 C       -13.4516142757        2.4672223024        5.6751878886
 C       -12.5810601403       -3.0015753989        2.7862809750
 C       -14.9914269900       -3.6039255497        2.3278944777
 H       -12.7165610450       -1.4776834260        5.1825975688
 H       -12.9532959663       -3.0165693414        6.1419755516
 H       -13.9068894572       -1.6750281509        6.3902922387
 H       -16.2279268767       -1.0043423353        3.3845784293
 H       -16.3035113952       -0.0996098357        2.0203822429
 H       -14.6456570473        0.0304844414        4.6289477959
 H       -16.0022345420        1.3432996317        4.3068943938
 H       -11.3799605003        3.5441740274        2.1733014067
 H       -11.9419911710        2.0033953274        1.2709288001
 H       -10.2552951864        1.0740564321        1.2911322381
 H        -9.5794611568        1.2261651061        2.9091605867
 H        -6.5172312637        0.3538457752       -1.6763886997
 H        -5.4497389408        1.1115684406       -0.6108624565
 H        -6.6315204806        2.0108052338       -3.3341520224
 H        -5.0672984010        1.3145590987       -2.9876272189
 H        -6.8152319746        6.1566824584       -2.7954240531
 H        -7.5770943825        4.5631743964       -3.1117909924
 H        -8.3896244287        5.9749276969       -5.2924521870
 H        -8.0891201605        7.4596871417       -4.3248280653
 H       -12.2003422829        7.6026603394       -1.7005443315
 H       -12.4290666824        9.1266927267       -2.2033027868
 H       -11.3677661249        9.0139228208       -0.0365354580
 H       -10.3786167990       10.0117292574       -0.8903093854
 H        -5.1799079970        9.1503562692        0.1661075771
 H        -6.2575707462        9.3018535295       -1.1620881144
 H        -5.2728765516        7.8061466175       -1.1745760853
 H        -7.2030435753       10.5652187494        0.8794411396
 H        -8.9904893950       10.5802898634        1.0111279686
 H        -8.2530972065       10.4871703359       -0.6325466474
 H        -8.6283354538        7.0204028755        1.8176513389
 H        -9.6637880587        8.2592862738        2.2686439435
 H        -7.9034194949        8.4683545027        2.3821961688
 H       -11.6632176618        7.1550569866       -6.2269090098
 H       -10.1033226543        6.3687641941       -6.4423276700
 H       -10.1477670449        8.0390253406       -5.9230873860
 H       -12.9091071107        6.1125439244       -4.5975095680
 H       -12.4747813272        6.0401789580       -2.9045506772
 H       -11.8368510420        4.9513003504       -4.1357649850
 H        -3.2395739846        3.4153223603       -5.5600299633
 H        -3.2853918801        4.6481321643       -4.2952772895
 H        -3.8931585973        4.9640054868       -5.9236839390
 H        -5.5932235126        1.7537318811       -5.1440524236
 H        -5.8655922647        3.1632789760       -6.4174369201
 H        -6.9672494142        2.7982714624       -4.9760293795
 H        -7.0524699822        1.8042596931        2.7908822075
 H        -6.1012778458        2.9469493115        1.6467613213
 H        -5.8538951722        1.2307346405        1.5356137491
 H        -8.7147083565        0.1078660742       -0.0785056570
 H        -8.5430775587        0.0580083936        1.7736754708
 H        -7.2484029983       -0.3579464241        0.3023576106
 H       -12.3860991824        4.5820800462        3.9311488793
 H       -13.9841853556        4.6879530197        4.4556320171
 H       -13.6773803328        4.2117667712        2.8562503032
 H       -13.0955661173        1.4874826153        6.1461920649
 H       -14.5529199238        2.8002808534        5.8378751010
 H       -12.8610155349        3.2879370135        6.1799561187
 H       -12.0059458100       -2.5525249318        2.0626625273
 H       -12.6834753124       -4.0703215757        2.3461215333
 H       -11.8430352128       -3.2211262194        3.6535698906
 H       -14.8706908779       -3.7721836355        1.2757892583
 H       -16.0156265274       -3.4490851625        2.5755237334
 H       -14.7468466152       -4.5693927078        2.7686042011
 Na       -8.5405298623        5.1038412386       -0.6855629967
