117

 C       -13.4368496092       -2.0346035790        5.6279463160
 C       -14.4878700659       -2.3907244461        4.6024158824
 O       -15.5873199875       -2.8394944829        4.7859543869
 C       -13.9599312975       -2.1119364698        3.0130136255
 C       -14.2296070771       -0.6982089037        2.4263197460
 O       -13.3402320136       -0.1502269496        1.8109796628
 C       -15.6262586802       -0.0742136814        2.8308588096
 C       -15.4310965152        0.9895763900        4.0206881082
 C       -14.9312995376        2.2611815204        3.4260081667
 O       -15.5237194990        2.8803140784        2.5957125264
 C       -13.5336426518        2.8908446373        4.2299618932
 C       -12.2434110488        2.0717149081        3.6377466633
 O       -11.8232701610        1.0956081731        4.2387583022
 C       -11.5668835193        2.5146899122        2.1906309168
 C       -10.2788892060        1.7472427661        1.9594352269
 C        -9.1315897390        2.4095975944        1.2544354972
 O        -8.9627442597        3.6464347129        1.2571215570
 C        -7.6496422182        1.6717458735        0.9105469341
 C        -7.1609322098        2.0778813684       -0.6263190298
 O        -7.8028327460        2.8534249734       -1.2890482371
 C        -5.8327870161        1.5793716779       -1.0222832274
 C        -5.8416246879        1.5942370622       -2.5631900741
 C        -5.3544810027        3.0367708879       -3.0073371459
 O        -4.9262535699        3.7092768012       -2.0404358584
 C        -5.1069689786        3.6498371808       -4.4410720520
 C        -6.1739612268        4.9997462804       -4.7177641023
 O        -6.2722861970        5.4450830355       -5.8393004211
 C        -7.1564314711        5.3229554818       -3.5444171391
 C        -8.2568948345        6.2974386883       -3.9366421203
 C        -9.7141022862        5.8456881786       -3.5084152508
 O        -9.8909596529        4.8478766707       -2.8096092345
 C       -10.8754838060        6.6513506670       -4.1248287609
 C       -10.9381546489        8.1703482310       -3.6542272647
 O       -10.4792159829        9.1059787721       -4.2026575951
 C       -11.5187050941        8.3320955610       -2.1987359495
 C       -10.4404660729        9.0229137894       -1.4040542540
 C        -9.3950605847        8.0453906739       -0.7155244786
 O        -9.7296895350        6.8572231511       -0.6428011567
 C        -8.1841017875        8.5079578281        0.0643227792
 C        -6.9019544035        7.7984341508       -0.4029101068
 O        -6.7548543825        6.5938328238       -0.5610202555
 C        -5.5326479982        8.6479524523       -0.4375318733
 C        -8.2766410403       10.0499782971        0.2237490113
 C        -8.2296741757        7.9917791092        1.5689535387
 C       -10.4982075236        6.9119732042       -5.7151094509
 C       -12.2056767419        6.0159792267       -3.8169996847
 C        -3.5870854403        4.0825328932       -4.5753686905
 C        -5.4735527847        2.8174600124       -5.7096659727
 C        -6.5665945598        2.3227146454        1.8568726937
 C        -7.7313430092        0.0915727439        1.1342380704
 C       -13.5411866364        4.3260125853        3.8175596711
 C       -13.6597801738        2.8051677881        5.7649178990
 C       -12.4825621353       -2.5195100336        2.9053024166
 C       -14.7632227946       -3.1415774553        2.2262177945
 H       -13.1303195323       -1.0345539228        5.2225642131
 H       -12.6247594990       -2.7457682496        5.7346126058
 H       -13.7642902377       -2.0630337074        6.6717658775
 H       -16.3595498713       -0.7633993159        3.0446073322
 H       -16.1083480637        0.5323497514        2.0735960665
 H       -14.6421622714        0.7640161890        4.7682722790
 H       -16.3823046906        1.1722911800        4.4713353532
 H       -11.3362483947        3.6385247116        2.0467953143
 H       -12.2896342556        2.1967546828        1.3578040722
 H       -10.4184689661        0.8835181186        1.3867512959
 H        -9.8000571984        1.2257773537        2.7905532037
 H        -5.4413777454        0.6946463523       -0.5560305459
 H        -4.9777101992        2.2691693032       -0.7413762778
 H        -6.8748931772        1.3358409499       -2.8453456642
 H        -5.0398334199        0.8739342666       -2.8674667940
 H        -6.6469634496        5.8645328763       -2.7992469010
 H        -7.5285904698        4.4215364727       -3.0763397458
 H        -8.2915114147        6.3575567647       -5.0376692804
 H        -8.1403948956        7.3570476845       -3.5154089998
 H       -11.8952501819        7.3670735876       -1.6727255185
 H       -12.4436562066        8.8820519304       -2.1368075266
 H       -10.9565782440        9.5534684410       -0.5586679317
 H        -9.9974950752        9.8351359717       -2.0248245482
 H        -5.6819987041        9.5264540100        0.1298157484
 H        -5.4401544996        9.1041845977       -1.4230116082
 H        -4.6532262965        8.0717797994       -0.1510295899
 H        -7.3397759349       10.5305547815        0.6832593763
 H        -9.0681564208       10.2006431712        0.8829220994
 H        -8.3016626670       10.4987679610       -0.6786170443
 H        -8.5846059719        6.9382773025        1.5869089611
 H        -9.1304587404        8.5413788072        2.1393478365
 H        -7.3125144160        8.0536011393        2.2188370442
 H       -11.2366787332        7.6531251339       -6.1325399736
 H       -10.4799628650        6.0521382735       -6.2825257660
 H        -9.5093456284        7.2949694607       -5.8877883895
 H       -13.0462818214        6.6858585912       -3.4981146985
 H       -12.1454480722        5.2060896998       -3.0218542346
 H       -12.4973892397        5.4539829429       -4.7009528339
 H        -2.8750756764        3.3843437943       -4.0721827022
 H        -3.2820938578        5.0412715429       -4.0593742087
 H        -3.3566790694        4.2097038326       -5.6737026489
 H        -5.0316894424        1.8561599474       -5.5124344431
 H        -5.1427082167        3.3640757837       -6.6234580807
 H        -6.4863534317        2.8251882566       -5.8038041244
 H        -6.7860727646        2.0953472775        2.8755821423
 H        -6.5710429414        3.3238972505        1.6454282086
 H        -5.6070383939        1.9827737687        1.5174355916
 H        -8.3372794733       -0.4302077788        0.5241245782
 H        -8.0278339667       -0.2615328387        2.1618820843
 H        -6.7246272264       -0.4423574058        0.8930637905
 H       -12.7130138993        4.9007148032        4.2017630466
 H       -14.4384541965        4.8941650452        4.2355101370
 H       -13.6659618778        4.5437947775        2.7784190024
 H       -14.1534378967        1.9168812027        5.9694893792
 H       -14.2083053880        3.6258989764        6.2134898638
 H       -12.7217746653        2.9535060055        6.2599406725
 H       -12.3394757616       -2.9670108958        1.9764956145
 H       -12.0734672282       -3.3754965855        3.6082154751
 H       -11.8178134758       -1.6128782047        3.0657327085
 H       -14.7229236983       -3.0173796662        1.1128644801
 H       -15.8215072586       -3.1195552179        2.4709556239
 H       -14.3239882433       -4.1522946704        2.2840206790
 Na       -8.4109922322        4.8634533489       -0.6783810785
