117

 C       -13.5060677547       -1.9384476089        5.6563971087
 C       -14.4297300385       -2.2646767866        4.4474523564
 O       -15.4548278479       -2.7959016213        4.7308052190
 C       -13.8724429403       -2.1583777171        2.9989905245
 C       -14.1459916033       -0.6243219887        2.5844355254
 O       -13.4146086358        0.1373613888        1.9237209262
 C       -15.5158265312        0.0037062681        2.8804543810
 C       -15.5537201069        0.9824929323        3.9805610880
 C       -14.9368032965        2.4057578773        3.6047233415
 O       -15.5287746968        3.1486252815        2.8046015089
 C       -13.6207614923        3.0091974842        4.1507010978
 C       -12.2105837485        2.1711856813        3.5738723880
 O       -11.9027201381        1.0816481117        4.0889684581
 C       -11.5311845498        2.5190225587        2.3236470047
 C       -10.2562252716        1.5977174673        1.9603092732
 C        -9.0231306400        2.3645391041        1.2971492090
 O        -9.2094369079        3.5710356082        1.2931756914
 C        -7.6728901973        1.6614269895        0.9869979721
 C        -7.1879376071        1.9507598427       -0.4873599608
 O        -7.8418990025        2.6916569591       -1.1552098577
 C        -5.8288194197        1.4541214909       -1.0122302050
 C        -5.6117594687        1.4332820558       -2.6280104334
 C        -5.2332731496        2.9322777478       -3.0488447957
 O        -5.0199796916        3.6880904442       -2.1668631052
 C        -5.1381562763        3.5600974276       -4.5345548639
 C        -6.1828528496        4.7464771747       -4.7519510355
 O        -6.2622478266        5.2896857376       -5.8030592012
 C        -7.0046670700        5.2029688753       -3.5401540210
 C        -8.1192649541        6.2902057854       -3.7584287964
 C        -9.6465546170        5.7847569251       -3.6688344329
 O        -9.9484801789        4.8811455671       -2.8873849259
 C       -10.9314415180        6.6262066435       -4.2827406622
 C       -10.9105320125        8.0273961158       -3.6229032633
 O       -10.5756819737        9.0589374970       -4.2211851953
 C       -11.3922536795        8.2887081175       -2.1309521109
 C       -10.2137414837        8.9850010854       -1.4286193319
 C        -9.3468268157        7.9880127212       -0.7083514438
 O        -9.6222000967        6.8350448177       -0.6358127985
 C        -8.1101929787        8.5819948177        0.0600282097
 C        -6.7849281167        7.9419619741       -0.4598522487
 O        -6.8635068942        6.7457055802       -0.6713488873
 C        -5.3964707078        8.6920257791       -0.4629608459
 C        -8.1603718479       10.1598322674        0.1778211049
 C        -8.3047622806        7.8640095253        1.4214568630
 C       -10.8071082318        6.6878841467       -5.8074166411
 C       -12.2787218969        5.9913962876       -3.9248204417
 C        -3.7275040867        4.1827777962       -4.4499556921
 C        -5.2613626086        2.5599780909       -5.6764215125
 C        -6.6098790790        2.3224774419        1.8623697283
 C        -7.7032130805        0.2248671604        1.3108257063
 C       -13.5296927486        4.5475247943        3.7555255380
 C       -13.9157714508        3.0207790333        5.6972949201
 C       -12.3973496233       -2.4073744879        2.9179973656
 C       -14.8104544113       -3.1699757146        2.1597102678
 H       -13.1916576765       -0.9577948048        5.7510308179
 H       -12.6402658392       -2.7108365211        5.8612499639
 H       -14.0768582785       -2.2709897379        6.4544067220
 H       -16.2411955262       -0.6811582432        3.1719918664
 H       -15.9433661046        0.4123587327        1.9916705567
 H       -15.0959973789        0.5602189980        4.8759336350
 H       -16.6484536674        1.0529952906        4.1872975558
 H       -10.9926002015        3.4619309129        2.4924663766
 H       -12.2682744376        2.6771008544        1.4436145985
 H       -10.4463507065        0.7009240311        1.3564612590
 H        -9.8816237039        1.0660023029        2.8660475594
 H        -5.5104102907        0.4326838742       -0.4435924945
 H        -4.9733483607        2.0696451913       -0.6644733544
 H        -6.6237112711        1.3125664413       -3.0475736896
 H        -4.8597764954        0.7088070156       -2.8990807539
 H        -6.3201557141        5.6353470013       -2.8251639554
 H        -7.4402969512        4.3093014481       -3.0117775309
 H        -8.0038347347        6.7960423761       -4.7290983952
 H        -8.1628563511        7.0925193089       -2.9136953407
 H       -11.8069025116        7.4391185591       -1.6264543845
 H       -12.2650867838        8.9349070800       -2.1587310384
 H       -10.5389420208        9.6289511049       -0.6666526140
 H        -9.7422575106        9.6564836246       -2.1866563416
 H        -5.4493976282        9.6102562298        0.1255631452
 H        -5.2792236564        9.0215214950       -1.4111692862
 H        -4.5380202386        7.9584248583       -0.2169508577
 H        -7.3073796355       10.7202852334        0.6538295937
 H        -9.0199481263       10.2877788724        0.7733481551
 H        -8.1778235358       10.6422104393       -0.7667634530
 H        -8.3885668856        6.7140613193        1.4499942433
 H        -9.1613405951        8.1965534633        1.8812996851
 H        -7.4385232196        8.1482862176        2.1430404909
 H       -11.6248777994        7.1650963830       -6.1890005871
 H       -10.6717846779        5.6423349412       -6.2250537208
 H        -9.9157869369        7.1580656524       -6.1815255649
 H       -13.0353316283        6.6047314444       -3.4550509778
 H       -12.0871269869        5.1620162504       -3.2049762141
 H       -12.6661338236        5.4280910624       -4.7780205141
 H        -3.0240185339        3.3598161003       -4.1842456497
 H        -3.4770705440        4.8866047161       -3.6666176177
 H        -3.4579541355        4.6457730578       -5.4856712558
 H        -4.6753227725        1.7467023811       -5.3203896458
 H        -4.9444999127        3.0096436892       -6.5843183236
 H        -6.3332435208        2.4381664616       -5.8922258091
 H        -6.6974459910        1.9030397095        2.8082266577
 H        -6.8003985128        3.3593863857        1.9025700341
 H        -5.6962331563        2.1704456886        1.4425519135
 H        -8.2827486506       -0.4406796088        0.4780860899
 H        -8.3022865268       -0.0941449691        2.2675003473
 H        -6.7335122260       -0.2699478274        1.3736947096
 H       -12.8896927966        5.1588855023        4.5304726059
 H       -14.4842743865        5.0837619892        3.7426186212
 H       -13.1600897475        4.8288285329        2.7879392971
 H       -14.1041651397        1.9708063920        5.8947585488
 H       -14.8278224369        3.5026348871        6.0132969623
 H       -13.2289920479        3.6441843392        6.2504194747
 H       -12.1971005806       -2.8773534458        1.9055157669
 H       -11.8442595025       -3.0601941946        3.6235556158
 H       -11.9006058465       -1.3653360594        2.9757502120
 H       -14.6256997275       -3.0683975280        1.1188583644
 H       -15.8177718334       -2.9023896054        2.2613290759
 H       -14.5907169264       -4.2101750339        2.3211286457
 Na       -8.6040748285        4.8959303090       -0.6343615284
