117

 C       -13.5261594910       -1.6527077708        5.5570820474
 C       -14.3338164666       -2.1182648547        4.4599520304
 O       -15.4184309827       -2.6558621287        4.6203524670
 C       -13.7630598369       -2.0009231541        3.0435865586
 C       -14.1495856648       -0.4338657810        2.6760112118
 O       -13.3471062977        0.3155460760        2.1801061514
 C       -15.5053049327        0.0245128375        2.9347581177
 C       -15.4496441978        1.3181564016        3.9689265567
 C       -15.1104679825        2.7211970238        3.4040855412
 O       -15.8056587719        3.5001870159        2.8712499354
 C       -13.6426554884        3.1853216841        3.9833374507
 C       -12.5184993388        2.1859280970        3.7554810950
 O       -12.3117072046        1.1448683662        4.3893098904
 C       -11.3919848386        2.6574787037        2.6718376941
 C       -10.3427968169        1.6667444935        2.1339031095
 C        -9.2074067803        2.3148105012        1.3451443600
 O        -9.2547340306        3.5054139572        1.0093362322
 C        -7.7079840084        1.6487842480        1.1159162116
 C        -7.2298087577        1.9082215381       -0.4665682688
 O        -7.9621359603        2.5428046781       -1.1845566725
 C        -6.2072884819        0.9737816612       -1.0699297351
 C        -5.6381070852        1.3740426504       -2.4247004659
 C        -5.1921397443        2.9201406705       -2.7999906629
 O        -5.1562568231        3.7683883567       -1.9074953889
 C        -5.1487073681        3.4299003236       -4.3772229889
 C        -6.3938249853        4.3678460538       -4.6631883300
 O        -6.4039227379        4.8828163618       -5.7680198289
 C        -7.2853933934        4.9283521369       -3.5742776919
 C        -8.1616172577        6.0842137345       -4.0518773013
 C        -9.6787745177        5.6879785639       -3.6343287392
 O        -9.8399522333        4.8774696190       -2.7544102828
 C       -10.8954417324        6.4502706090       -4.3705036510
 C       -10.8638263631        7.9468462381       -3.8810254369
 O       -10.5210928917        8.8014756368       -4.6030060815
 C       -11.1625839999        8.1559229033       -2.4151842284
 C       -10.2210199913        9.0384584851       -1.6069567693
 C        -9.2349655281        8.1742752352       -0.7118811928
 O        -9.4779025528        6.9622285732       -0.6951645249
 C        -7.9043303542        8.5632637942        0.2665312670
 C        -6.6488999327        7.8373014075       -0.5379893619
 O        -6.8338376714        6.7756768582       -1.1009878948
 C        -5.4293923725        8.8164287744       -0.5364203975
 C        -7.8028466969       10.0178062980        0.2072385851
 C        -8.1582747373        8.0860624098        1.7954484436
 C       -10.8898582793        6.4964638303       -5.8964670611
 C       -12.1009860470        5.6109847420       -3.8121224829
 C        -3.9204674675        4.2588626400       -4.6690086882
 C        -4.9918093239        2.1574990180       -5.2246200964
 C        -6.7167149133        2.4562451499        2.0975117700
 C        -7.6505371351        0.2254878904        1.4780742483
 C       -13.2844320076        4.6541382578        3.4709295475
 C       -13.6085664380        3.1344810979        5.5397499143
 C       -12.2725912926       -2.1218625688        2.7593744734
 C       -14.5270488195       -2.8386264245        1.9587800933
 H       -13.2148800449       -0.5710509052        5.4978410172
 H       -12.6972570104       -2.2804220500        5.4749599812
 H       -13.8913647619       -1.9535735154        6.5482742231
 H       -16.3272291815       -0.6317437009        3.3031478630
 H       -15.8314189697        0.3141667131        1.8418892750
 H       -14.6689835544        1.0634271002        4.7485544109
 H       -16.3589995296        1.3019557753        4.5801328512
 H       -10.9110108500        3.5877096850        2.9320336424
 H       -11.8916804656        2.9190939459        1.7954233471
 H       -10.8492373418        0.7466629201        1.7306903124
 H        -9.8796345239        1.1582923047        3.0097659819
 H        -6.7374195791        0.1376828680       -1.1238503672
 H        -5.4957941169        0.6447319796       -0.2797925198
 H        -6.4332241706        1.1205808268       -3.1049930112
 H        -4.6801305906        0.8717406093       -2.5866338725
 H        -6.4639519185        5.2479200818       -2.8193457216
 H        -7.8393170122        4.1041833040       -3.0865524457
 H        -7.9377352453        6.3318214746       -5.0823947154
 H        -7.9931294289        6.9178774312       -3.4646046807
 H       -11.4355537667        7.1862083359       -1.9178096511
 H       -12.1337501646        8.6319852227       -2.4507525735
 H       -10.7916219989        9.6751489902       -0.8464604577
 H        -9.7061269594        9.6645988200       -2.3058177514
 H        -5.4271504972        9.5571536958        0.2780680246
 H        -5.2674615336        9.2776805212       -1.5821380606
 H        -4.6641306901        8.0743282411       -0.3937563929
 H        -7.1630127993       10.2753346553        1.1292843531
 H        -8.7919812918       10.4777519859        0.4864471296
 H        -7.2056423625       10.5036963747       -0.5659353853
 H        -7.9751924222        7.1291703302        2.0273953133
 H        -9.2445579191        8.2601417789        2.0785700172
 H        -7.6069584414        8.6466328908        2.4383453546
 H       -11.8494160376        7.0069826128       -6.3249398346
 H       -10.6155426111        5.6105701713       -6.3492355306
 H       -10.0687699699        7.1904463603       -6.1770554819
 H       -12.9865150744        6.2134036879       -3.8576814861
 H       -12.0972066224        5.3061847040       -2.8005387079
 H       -12.2323301957        4.7261529218       -4.3647528406
 H        -3.1105821054        3.6439213521       -4.8543414025
 H        -3.5120155522        4.8412622487       -3.8696121832
 H        -4.1246522346        4.8939379857       -5.4548155354
 H        -3.9218227819        1.9807674421       -5.0524862744
 H        -5.2444243720        2.5298468349       -6.2603060015
 H        -5.7439024094        1.4460636409       -5.0971308249
 H        -7.1314000522        2.2031111178        3.1500378701
 H        -6.7558007508        3.5726963416        2.0118768722
 H        -5.6347436031        1.9946906266        2.0114128321
 H        -8.3466603206       -0.2858896112        1.0680648524
 H        -7.9344619928        0.1127152421        2.4757668797
 H        -6.6701387932       -0.3247279021        1.4616997260
 H       -12.6421172190        5.2010799034        4.0395279332
 H       -14.1090953484        5.3559083802        3.2118556758
 H       -12.7822752520        4.5193595070        2.5015572792
 H       -13.1064095744        2.2376238325        5.8280093584
 H       -14.5407618981        2.7991494889        6.0646828453
 H       -13.4445492273        4.1297379088        5.9371685640
 H       -12.0804504175       -1.7371413465        1.8084803123
 H       -11.8971997354       -3.1519845663        2.7940024221
 H       -11.7502676215       -1.5649457437        3.4778992606
 H       -13.9188903878       -2.6693146186        0.9848813955
 H       -15.5036909369       -2.3847406932        1.6753800076
 H       -14.5556337170       -3.9092026397        2.1721622012
 Na       -8.8280696547        4.7465456167       -0.7159240451
