117

 C       -12.6742915661        2.6572158339      -10.5591043352
 C       -13.0502613296        1.2633738422      -10.1011563285
 O       -14.1481269638        0.9675569342       -9.6373223911
 C       -11.8310033828        0.1624051894      -10.0730364988
 C       -11.4636568795       -0.0944959503       -8.4504986106
 O       -11.3756237291       -1.2012907314       -7.9808871122
 C       -11.3666949462        1.1885715175       -7.7533926399
 C       -10.6955333207        0.9684027013       -6.3403350249
 C       -10.3750991479        2.1642445985       -5.4953448673
 O       -10.3719679154        3.3022799642       -5.8726648429
 C        -9.9355194347        1.9377320875       -4.0274474151
 C        -9.0640699690        3.2151105296       -3.5269404924
 O        -7.8590049946        3.1119001203       -3.3479547065
 C        -9.7654060372        4.5925193206       -3.2306991805
 C        -8.8150709282        5.6759385306       -2.7183571914
 C        -8.7704765832        5.8076286730       -1.2059991158
 O        -9.0518557375        4.9210678092       -0.4389708309
 C        -8.4662149881        7.2260974734       -0.5552367066
 C        -9.5575571441        7.4926769206        0.5712623145
 O       -10.2630006897        6.6485907713        1.1294008107
 C        -9.9590407123        8.9457842377        0.9692326075
 C       -10.8102102982        8.8944434454        2.3227595815
 C       -10.1986394248        7.9207134290        3.3852843532
 O        -8.9950711010        7.9217778240        3.4809991294
 C       -11.0865360426        7.0949972978        4.4438886952
 C       -10.0575242310        6.0508046877        5.0302521906
 O        -9.6214164892        5.2723408568        4.2226973349
 C        -9.6931470227        5.8473412432        6.5841228187
 C        -9.3817709254        4.3750670593        6.9532202802
 C       -10.7056427603        3.4550640166        6.7741271262
 O       -11.7853504021        3.9159121704        6.8417201948
 C       -10.6240429064        1.7731961113        6.8527165260
 C        -9.4619628193        1.3143625733        5.9980378530
 O        -8.2852643640        1.3776856605        6.3845633981
 C        -9.7972993239        0.7611846144        4.5330026879
 C        -8.5909468329        0.5480218145        3.6192678063
 C        -8.2301598764        1.8352820384        2.9532504599
 O        -9.1566888311        2.5807737746        2.7031223153
 C        -6.7968147345        2.2262237757        2.5155921125
 C        -6.4197165677        3.6868245542        3.1002603634
 O        -6.8451987672        4.6162311613        2.4106938319
 C        -5.6890286208        3.7099536760        4.4132327050
 C        -5.8008640501        1.1552757733        2.8640505176
 C        -6.9412332453        2.3138365673        0.9997008296
 C       -10.2234459387        1.6202183675        8.3525102789
 C       -12.0205641582        1.1681756018        6.7263231082
 C       -11.5571727577        8.0762762084        5.6058052094
 C       -12.0698401170        6.1991897647        3.6858054702
 C        -7.1899769437        7.1031753224        0.3132131165
 C        -8.4139306523        8.4148544981       -1.5226939965
 C       -11.1967862822        1.7442876663       -3.1744252985
 C        -8.9519771078        0.6807349518       -3.7898182045
 C       -12.3975196587       -1.1764965483      -10.5857115869
 C       -10.5586971993        0.5880640068      -10.7225024263
 H       -13.2396279971        3.3187777798       -9.8383989896
 H       -12.9818351580        2.7023783557      -11.6412641243
 H       -11.5807326715        2.7961520198      -10.4078168340
 H       -12.3644812836        1.5658768191       -7.6659729987
 H       -10.8678385079        1.9521772032       -8.3940385031
 H        -9.7904830666        0.4606482944       -6.6693435562
 H       -11.3909975976        0.2062886906       -5.8932564727
 H       -10.5802529777        4.3300362410       -2.4533037827
 H       -10.3963808801        4.9124777678       -4.0804006021
 H        -8.9516608497        6.7229286705       -3.0612098936
 H        -7.9555548651        5.4014733279       -3.3052048645
 H       -10.5380167992        9.4345415515        0.2242482508
 H        -9.0092018857        9.5219804432        1.2075238232
 H       -11.8503898008        8.7075696142        1.9486574251
 H       -10.8863377883        9.9183156239        2.7694311200
 H       -10.4263125672        6.3569967056        7.2640694794
 H        -8.7980109325        6.5032114720        6.7525174610
 H        -9.1419643707        4.3399532707        8.0346372124
 H        -8.5046502855        4.1137537620        6.2845979208
 H       -10.3948079284        1.5975102042        4.1208350875
 H       -10.4092132765       -0.1508224716        4.5095681931
 H        -8.9365611773       -0.2776170807        2.8833401257
 H        -7.7295881106        0.0271494947        4.1111610102
 H        -5.6861584503        4.5685592794        5.1163300697
 H        -4.7044355640        3.7186589015        4.0620837318
 H        -5.9916586833        2.7970359996        4.9230408555
 H        -5.9997240634        0.2400886668        2.3861640985
 H        -5.7993724508        0.8985545548        3.9211328288
 H        -4.7360730322        1.5328113642        2.6200972834
 H        -8.0001266554        2.4129310768        0.7128416440
 H        -6.5253217688        1.4006836707        0.5018177053
 H        -6.4504455066        3.1681580968        0.5928802614
 H        -9.1439356228        2.0438242052        8.4426569338
 H       -10.2018873371        0.6119600181        8.8446133175
 H       -10.9293905639        2.1374389390        8.9822253767
 H       -12.0941770370        0.2407854549        7.2581960532
 H       -12.1815418207        0.9593565153        5.6769785737
 H       -12.6236748666        1.9368388368        7.1252099046
 H       -12.2738883393        8.7999176491        5.2105624575
 H       -10.6468428866        8.6068848828        6.0643705082
 H       -11.9364119649        7.4875669605        6.4339073903
 H       -11.5203253047        5.6903311765        2.8924660237
 H       -12.8224845379        6.9295108588        3.3125141417
 H       -12.6755718719        5.5669613947        4.3611280852
 H        -6.9626341263        8.0502278744        0.7516048743
 H        -6.3122980047        6.9552930069       -0.3288978004
 H        -7.3465084760        6.3553543236        0.9819659705
 H        -7.8466807848        8.2387135506       -2.4194710343
 H        -8.0809833710        9.2201272891       -0.9226283600
 H        -9.3554244784        8.7570302391       -1.8263847961
 H       -11.7219925212        1.0150745334       -3.6969519012
 H       -11.7796053316        2.6520443787       -3.1858202261
 H       -11.0271346872        1.4873650910       -2.1308979462
 H        -9.4822836333       -0.2287863103       -3.9776823878
 H        -8.6398359142        0.5571695495       -2.7670303802
 H        -8.2114282251        0.6316399040       -4.5562350274
 H       -12.9748104070       -1.5472137858       -9.8313512141
 H       -11.6745522256       -1.9494965243      -10.7874147899
 H       -12.8873431924       -1.0088548209      -11.5464533311
 H       -10.1795770243        1.5418477017      -10.3134686314
 H       -10.6275232435        0.6701274430      -11.7804401433
 H        -9.6582537824        0.0580720254      -10.5683196361
 Na       -9.0317839941        4.7949894660        2.0571057806
