117

 C       -13.5366334394       -1.4054610800        5.5888303002
 C       -14.1426036336       -1.9051399501        4.2951462070
 O       -15.2165208389       -2.4314785969        4.4037080287
 C       -13.6549677254       -1.4913296417        2.8591392363
 C       -14.1147477509        0.0884272011        2.3476261005
 O       -13.3275126645        0.7293338270        1.6553189014
 C       -15.3983318874        0.4967702531        2.9289183839
 C       -15.1606877771        1.4120447039        4.1195400000
 C       -14.8894568302        2.8491360711        3.5528560415
 O       -15.5491504917        3.3349162744        2.6168168194
 C       -13.5802949938        3.6012420228        4.1350669726
 C       -12.3924564584        2.5543136639        3.8739044698
 O       -12.2738935193        1.7042387003        4.7506731801
 C       -11.2736658996        2.8646811472        2.8942248650
 C       -10.1837378414        1.9725465840        2.5137569545
 C        -9.3612596070        2.5436979084        1.4314633941
 O        -9.6795320729        3.4746344248        0.7027647909
 C        -7.8385424103        1.7321866222        1.1777700820
 C        -7.6027898798        1.7319181652       -0.3838426149
 O        -8.1268250024        2.4947629917       -1.1298653955
 C        -6.3644110218        1.0479215292       -0.7391076480
 C        -6.0567388062        1.1265798104       -2.2291946675
 C        -5.5372531375        2.5315075055       -2.6466077087
 O        -5.3670829549        3.2698538177       -1.6656854571
 C        -5.0207294926        2.9727594945       -3.9839923824
 C        -6.3376749459        3.7768464332       -4.6560778212
 O        -6.6883674966        3.5821723990       -5.7566934458
 C        -7.3218746164        4.6268620764       -3.7137497264
 C        -8.6348916470        5.0557458499       -4.4919106985
 C        -9.9071901140        5.3655548390       -3.6759765556
 O       -10.1010100906        5.0511094238       -2.5284850570
 C       -11.1169774888        6.2485193145       -4.4406177653
 C       -10.7008892447        7.6617306747       -4.0608893295
 O        -9.9863764770        8.4130574149       -4.7178885563
 C       -11.0494229152        8.0617916830       -2.5948380246
 C        -9.8790824979        8.8865462387       -1.9430914940
 C        -9.3650086153        8.0909171319       -0.7070517908
 O        -9.9683330258        7.0911512116       -0.3687849767
 C        -7.9934658412        8.5299188929       -0.1321865249
 C        -6.7434683939        7.6868842228       -0.7624888950
 O        -6.7077797591        6.5024458238       -0.9164362532
 C        -5.3787075074        8.4489690944       -0.7316280409
 C        -7.7923809022       10.0663193564       -0.1505838982
 C        -7.8486086111        8.2647996254        1.4446383786
 C       -10.9259337530        6.2030452924       -6.0408368431
 C       -12.4880778862        5.9452980977       -3.9430790304
 C        -3.7965971132        3.9408317611       -3.6493814571
 C        -4.4270602537        1.6871003355       -4.8898347588
 C        -6.7475932962        2.5902919709        1.9645431840
 C        -7.8160029543        0.2275500154        1.7048309523
 C       -13.4065855974        4.8394038685        3.2594350216
 C       -13.6697549525        4.0110928099        5.6384415870
 C       -12.1012625799       -1.6169352752        2.6392674586
 C       -14.4837363171       -2.2268039276        1.8003972643
 H       -12.7104066551       -0.7311505140        5.5270318859
 H       -13.1139689430       -2.3428511365        6.0977799909
 H       -14.2832041841       -0.9546133977        6.1310223718
 H       -15.8798087022       -0.4412765006        3.1652720788
 H       -16.1159364976        1.2821104076        2.2922838416
 H       -14.3298827571        1.1406692458        4.8121146367
 H       -15.9166538076        1.4444320381        4.8809591030
 H       -10.9336475368        3.8442347746        3.0275071548
 H       -11.6887417882        3.1190597839        1.9835478100
 H       -10.5557776149        0.9530031456        2.1926822693
 H        -9.6225204669        1.7451984567        3.4530283520
 H        -6.2318933516        0.1209613063       -0.3326571387
 H        -5.5844912946        1.6541741635       -0.1917142775
 H        -6.9723460626        0.9977160591       -2.7932504744
 H        -5.4001811227        0.2799222092       -2.3748307390
 H        -6.6453343124        5.4298925598       -3.2662392048
 H        -7.4636997674        3.9498581148       -2.8220283705
 H        -8.9988391688        4.2580252239       -5.1903885971
 H        -8.3415200444        5.8844864276       -5.0666960176
 H       -11.1977161087        7.2044962083       -1.9140441828
 H       -11.9080665834        8.6628382271       -2.5767955092
 H       -10.3588556853        9.8152320805       -1.6080818460
 H        -9.1328433940        9.0860138195       -2.6333637224
 H        -4.7358356295        7.8588093998       -0.0263438478
 H        -5.4185208723        9.4650733476       -0.6406238608
 H        -4.9775915277        8.2971207514       -1.8130059352
 H        -6.7355512247       10.3873305378        0.3613056637
 H        -8.5946016908       10.6409432698        0.3634419036
 H        -7.9490993048       10.4952215619       -1.0917357214
 H        -8.3884722793        7.3794566071        1.5812065361
 H        -8.3566337259        8.9488949691        2.0218081457
 H        -6.8812784039        8.1015970803        1.8086120470
 H       -11.7696424112        6.7009448825       -6.5798894318
 H       -10.9703759365        5.2069435592       -6.3826014891
 H        -9.9843372750        6.6827825212       -6.3656141173
 H       -13.1980739520        5.8037740934       -4.7588908108
 H       -12.9086921217        6.6905855283       -3.2396385472
 H       -12.5428600499        5.0477783926       -3.3763562960
 H        -3.1503533959        3.5714714826       -2.8660883399
 H        -4.2057790916        4.9254548575       -3.3504540075
 H        -3.1930077937        4.2037519312       -4.5601637564
 H        -3.6746183465        1.0422787922       -4.3351859501
 H        -3.9794451271        2.1933739324       -5.8114783858
 H        -5.3340630496        1.1371185909       -5.0631543580
 H        -6.7644916522        2.5879287310        3.0490652992
 H        -6.8761444581        3.5934638430        1.6464747534
 H        -5.7592269383        2.1946740439        1.7465423366
 H        -8.4910049650       -0.3298555444        1.0753236874
 H        -8.0890037687       -0.1115675346        2.6650366149
 H        -6.8620125666       -0.1810632017        1.7257436733
 H       -12.6190737497        5.4752802080        3.6963092888
 H       -14.4248715005        5.3849312601        3.3576448843
 H       -13.1090613726        4.7319943673        2.2391337113
 H       -14.3076350938        3.4581309763        6.3663710605
 H       -14.1945864755        5.0406754543        5.5808006652
 H       -12.6032032531        4.1070262488        5.9937668139
 H       -11.7204226074       -0.9991889101        1.9280886629
 H       -11.8368271780       -2.7278724896        2.4824782240
 H       -11.6068078168       -1.3090008843        3.5991944866
 H       -14.2552847968       -1.7766877801        0.8321619669
 H       -15.4960699197       -2.1150217510        2.0389794061
 H       -14.3316170039       -3.2706696690        1.8548301691
 Na       -8.3729163254        4.9541819357       -0.5551064711
